xflr5 v6.61

 Calculated polar for: NACA 4412

 1 1 Reynolds number fixed          Mach number fixed         

 xtrf =   1.000 (top)        1.000 (bottom)
 Mach =   0.000     Re =     0.300 e 6     Ncrit =   6.000

  alpha     CL        CD       CDp       Cm    Top Xtr Bot Xtr   Cpmin    Chinge    XCp    
 ------- -------- --------- --------- -------- ------- ------- -------- --------- ---------
 -15.000  -0.4156   0.16939   0.16601  -0.0212  1.0000  0.0247  -1.6739   0.0000   0.0000   0.0000   0.1795
 -14.500  -0.4092   0.16110   0.15774  -0.0259  1.0000  0.0262  -1.8456   0.0000   0.0000   0.0000   0.1675
 -13.000  -0.2616   0.12777   0.12477  -0.0419  1.0000  0.0260  -1.6463   0.0000   0.0000   0.0000   0.0739
 -12.500  -0.2587   0.12276   0.11979  -0.0416  1.0000  0.0245  -1.6479   0.0000   0.0000   0.0000   0.0735
 -12.000  -0.2675   0.11546   0.11253  -0.0422  1.0000  0.0235  -1.8177   0.0000   0.0000   0.0000   0.0771
 -11.500  -0.3931   0.10844   0.10520  -0.0442  1.0000  0.0223  -2.8089   0.0000   0.0000   0.0000   0.1204
 -11.000  -0.6614   0.05589   0.05272  -0.0665  1.0000  0.0220  -6.1329   0.0000   0.0000   0.0000   0.1355
 -10.500  -0.7054   0.03407   0.02961  -0.0879  0.9888  0.0221  -6.8200   0.0000   0.0000   0.0000   0.1126
 -10.000  -0.6576   0.02949   0.02461  -0.0923  0.9818  0.0231  -6.4555   0.0000   0.0000   0.0000   0.0971
  -9.500  -0.6031   0.02637   0.02110  -0.0954  0.9750  0.0243  -6.0291   0.0000   0.0000   0.0000   0.0793
  -9.000  -0.5468   0.02317   0.01728  -0.0982  0.9682  0.0260  -5.6408   0.0000   0.0000   0.0000   0.0580
  -8.500  -0.4814   0.02116   0.01507  -0.1018  0.9641  0.0280  -5.1435   0.0000   0.0000   0.0000   0.0259
  -8.000  -0.4221   0.01938   0.01294  -0.1034  0.9560  0.0304  -4.7062   0.0000   0.0000   0.0000  -0.0081
  -7.500  -0.3634   0.01779   0.01121  -0.1047  0.9471  0.0326  -4.2692   0.0000   0.0000   0.0000  -0.0520
  -7.000  -0.3044   0.01650   0.00968  -0.1057  0.9366  0.0359  -3.8845   0.0000   0.0000   0.0000  -0.1119
  -6.500  -0.2467   0.01540   0.00849  -0.1062  0.9248  0.0396  -3.4988   0.0000   0.0000   0.0000  -0.1968
  -6.000  -0.1924   0.01442   0.00740  -0.1060  0.9109  0.0437  -3.1408   0.0000   0.0000   0.0000  -0.3194
  -5.500  -0.1373   0.01361   0.00651  -0.1058  0.8969  0.0494  -2.7878   0.0000   0.0000   0.0000  -0.5438
  -5.000  -0.0819   0.01288   0.00569  -0.1057  0.8822  0.0563  -2.4739   0.0000   0.0000   0.0000  -1.0740
  -4.500  -0.0262   0.01225   0.00498  -0.1055  0.8668  0.0655  -2.1711   0.0000   0.0000   0.0000  -3.8660
  -4.000   0.0287   0.01173   0.00442  -0.1052  0.8494  0.0778  -1.8794   0.0000   0.0000   0.0000   3.9807
  -3.500   0.0839   0.01127   0.00393  -0.1048  0.8304  0.0941  -1.6221   0.0000   0.0000   0.0000   1.5209
  -3.000   0.1390   0.01089   0.00353  -0.1045  0.8104  0.1164  -1.3740   0.0000   0.0000   0.0000   1.0123
  -2.500   0.1940   0.01057   0.00322  -0.1042  0.7886  0.1462  -1.1542   0.0000   0.0000   0.0000   0.7929
  -2.000   0.2487   0.01031   0.00298  -0.1039  0.7653  0.1849  -0.9510   0.0000   0.0000   0.0000   0.6707
  -1.500   0.3032   0.01009   0.00281  -0.1035  0.7412  0.2340  -0.7689   0.0000   0.0000   0.0000   0.5928
  -1.000   0.3573   0.00991   0.00269  -0.1031  0.7161  0.2964  -0.6859   0.0000   0.0000   0.0000   0.5387
  -0.500   0.4106   0.00964   0.00262  -0.1026  0.6902  0.3898  -0.7256   0.0000   0.0000   0.0000   0.4992
   0.000   0.4598   0.00900   0.00270  -0.1013  0.6650  0.6412  -0.7648   0.0000   0.0000   0.0000   0.4689
   0.500   0.5087   0.00850   0.00284  -0.0987  0.6408  0.9247  -0.8061   0.0000   0.0000   0.0000   0.4419
   1.000   0.5811   0.00870   0.00282  -0.1022  0.6159  1.0000  -0.8617   0.0000   0.0000   0.0000   0.4232
   1.500   0.6329   0.00896   0.00291  -0.1013  0.5934  1.0000  -0.9081   0.0000   0.0000   0.0000   0.4068
   2.000   0.6848   0.00927   0.00304  -0.1004  0.5728  1.0000  -0.9571   0.0000   0.0000   0.0000   0.3930
   2.500   0.7371   0.00958   0.00323  -0.0997  0.5538  1.0000  -1.0096   0.0000   0.0000   0.0000   0.3810
   3.000   0.7895   0.00990   0.00345  -0.0990  0.5360  1.0000  -1.0660   0.0000   0.0000   0.0000   0.3707
   3.500   0.8418   0.01024   0.00371  -0.0984  0.5193  1.0000  -1.1276   0.0000   0.0000   0.0000   0.3615
   4.000   0.8940   0.01060   0.00402  -0.0977  0.5032  1.0000  -1.1972   0.0000   0.0000   0.0000   0.3534
   4.500   0.9458   0.01098   0.00436  -0.0969  0.4874  1.0000  -1.2933   0.0000   0.0000   0.0000   0.3461
   5.000   0.9970   0.01139   0.00474  -0.0961  0.4711  1.0000  -1.4426   0.0000   0.0000   0.0000   0.3395
   5.500   1.0476   0.01179   0.00515  -0.0952  0.4526  1.0000  -1.6239   0.0000   0.0000   0.0000   0.3334
   6.000   1.0961   0.01226   0.00559  -0.0939  0.4295  1.0000  -1.8281   0.0000   0.0000   0.0000   0.3276
   6.500   1.1433   0.01275   0.00606  -0.0925  0.4018  1.0000  -2.0524   0.0000   0.0000   0.0000   0.3221
   7.000   1.1891   0.01330   0.00660  -0.0908  0.3697  1.0000  -2.2995   0.0000   0.0000   0.0000   0.3169
   7.500   1.2311   0.01406   0.00725  -0.0886  0.3304  1.0000  -2.5545   0.0000   0.0000   0.0000   0.3118
   8.000   1.2680   0.01510   0.00813  -0.0856  0.2819  1.0000  -2.8153   0.0000   0.0000   0.0000   0.3067
   8.500   1.2984   0.01651   0.00927  -0.0817  0.2250  1.0000  -3.0654   0.0000   0.0000   0.0000   0.3014
   9.000   1.3200   0.01821   0.01070  -0.0766  0.1687  1.0000  -3.3133   0.0000   0.0000   0.0000   0.2958
   9.500   1.3393   0.02016   0.01243  -0.0714  0.1225  1.0000  -3.5574   0.0000   0.0000   0.0000   0.2904
  10.000   1.3580   0.02224   0.01438  -0.0667  0.0911  1.0000  -3.8037   0.0000   0.0000   0.0000   0.2854
  10.500   1.3759   0.02448   0.01656  -0.0624  0.0710  1.0000  -4.0511   0.0000   0.0000   0.0000   0.2808
  11.000   1.3930   0.02692   0.01903  -0.0584  0.0583  1.0000  -4.3192   0.0000   0.0000   0.0000   0.2766
  11.500   1.4091   0.02961   0.02182  -0.0549  0.0496  1.0000  -4.5859   0.0000   0.0000   0.0000   0.2727
  12.000   1.4221   0.03275   0.02506  -0.0517  0.0434  1.0000  -4.8432   0.0000   0.0000   0.0000   0.2692
  12.500   1.4318   0.03641   0.02887  -0.0490  0.0391  1.0000  -5.0865   0.0000   0.0000   0.0000   0.2661
  13.000   1.4367   0.04080   0.03338  -0.0467  0.0357  1.0000  -5.3092   0.0000   0.0000   0.0000   0.2634
  13.500   1.4433   0.04528   0.03807  -0.0450  0.0328  1.0000  -5.5374   0.0000   0.0000   0.0000   0.2611
  14.000   1.4423   0.05088   0.04380  -0.0438  0.0306  1.0000  -5.7355   0.0000   0.0000   0.0000   0.2593
  14.500   1.4442   0.05645   0.04960  -0.0431  0.0285  1.0000  -5.9585   0.0000   0.0000   0.0000   0.2577
  15.000   1.4406   0.06295   0.05626  -0.0431  0.0270  1.0000  -6.1521   0.0000   0.0000   0.0000   0.2567


