xflr5 v6.61

 Calculated polar for: NACA 4412

 1 1 Reynolds number fixed          Mach number fixed         

 xtrf =   1.000 (top)        1.000 (bottom)
 Mach =   0.000     Re =     0.040 e 6     Ncrit =   6.000

  alpha     CL        CD       CDp       Cm    Top Xtr Bot Xtr   Cpmin    Chinge    XCp    
 ------- -------- --------- --------- -------- ------- ------- -------- --------- ---------
 -15.000  -0.4213   0.18291   0.17389  -0.0200  1.0000  0.1183  -1.4079   0.0000   0.0000   0.0000   0.1842
 -14.500  -0.4065   0.17679   0.16780  -0.0222  1.0000  0.1248  -1.3982   0.0000   0.0000   0.0000   0.1775
 -14.000  -0.3916   0.17028   0.16132  -0.0241  1.0000  0.1308  -1.3884   0.0000   0.0000   0.0000   0.1708
 -13.500  -0.3829   0.16480   0.15591  -0.0265  1.0000  0.1366  -1.4072   0.0000   0.0000   0.0000   0.1636
 -13.000  -0.3749   0.15959   0.15077  -0.0286  1.0000  0.1435  -1.4207   0.0000   0.0000   0.0000   0.1569
 -12.500  -0.3589   0.15249   0.14372  -0.0297  1.0000  0.1491  -1.3944   0.0000   0.0000   0.0000   0.1505
 -12.000  -0.3563   0.14740   0.13872  -0.0319  1.0000  0.1546  -1.4239   0.0000   0.0000   0.0000   0.1445
 -11.500  -0.3530   0.14240   0.13379  -0.0335  1.0000  0.1632  -1.4362   0.0000   0.0000   0.0000   0.1398
 -11.000  -0.3439   0.13630   0.12779  -0.0342  1.0000  0.1728  -1.4175   0.0000   0.0000   0.0000   0.1358
 -10.500  -0.3316   0.12974   0.12131  -0.0343  1.0000  0.1815  -1.4045   0.0000   0.0000   0.0000   0.1320
 -10.000  -0.3257   0.12374   0.11542  -0.0346  1.0000  0.1874  -1.4129   0.0000   0.0000   0.0000   0.1299
  -9.500  -0.3388   0.11971   0.11160  -0.0354  1.0000  0.1941  -1.4756   0.0000   0.0000   0.0000   0.1332
  -9.000  -0.3395   0.11451   0.10653  -0.0342  1.0000  0.2043  -1.4802   0.0000   0.0000   0.0000   0.1377
  -8.500  -0.3424   0.10947   0.10167  -0.0323  1.0000  0.2148  -1.4819   0.0000   0.0000   0.0000   0.1451
  -8.000  -0.3415   0.10383   0.09619  -0.0297  1.0000  0.2200  -1.4711   0.0000   0.0000   0.0000   0.1531
  -7.500  -0.4040   0.09342   0.08603  -0.0347  1.0000  0.1239  -1.9026   0.0000   0.0000   0.0000   0.1561
  -7.000  -0.4272   0.08588   0.07864  -0.0359  1.0000  0.1147  -2.0469   0.0000   0.0000   0.0000   0.1588
  -6.500  -0.4464   0.07612   0.06883  -0.0402  1.0000  0.1080  -2.2461   0.0000   0.0000   0.0000   0.1533
  -6.000  -0.4456   0.06756   0.06008  -0.0428  1.0000  0.1075  -2.3277   0.0000   0.0000   0.0000   0.1476
  -5.500  -0.4311   0.05829   0.05028  -0.0470  1.0000  0.1097  -2.4178   0.0000   0.0000   0.0000   0.1347
  -5.000  -0.4020   0.05144   0.04287  -0.0490  1.0000  0.1129  -2.3965   0.0000   0.0000   0.0000   0.1216
  -4.500  -0.3627   0.04552   0.03619  -0.0515  1.0000  0.1211  -2.3330   0.0000   0.0000   0.0000   0.1014
  -4.000  -0.3089   0.04081   0.03061  -0.0549  0.9972  0.1324  -2.2070   0.0000   0.0000   0.0000   0.0651
  -3.500  -0.2230   0.03721   0.02606  -0.0628  0.9818  0.1530  -2.0052   0.0000   0.0000   0.0000  -0.0408
  -3.000  -0.1408   0.03518   0.02359  -0.0692  0.9648  0.1814  -1.7590   0.0000   0.0000   0.0000  -0.2539
  -2.500  -0.0621   0.03381   0.02196  -0.0743  0.9463  0.2216  -1.5265   0.0000   0.0000   0.0000  -0.9706
  -2.000   0.0140   0.03279   0.02081  -0.0789  0.9268  0.2816  -1.2970   0.0000   0.0000   0.0000   5.9522
  -1.500   0.0856   0.03171   0.02003  -0.0825  0.9068  0.3762  -1.0921   0.0000   0.0000   0.0000   1.2246
  -1.000   0.1476   0.02989   0.01977  -0.0830  0.8887  0.6355  -0.9118   0.0000   0.0000   0.0000   0.8173
  -0.500   0.2203   0.02962   0.01934  -0.0853  0.8668  1.0000  -0.7285   0.0000   0.0000   0.0000   0.6389
   0.000   0.2827   0.03038   0.01949  -0.0873  0.8437  1.0000  -0.6166   0.0000   0.0000   0.0000   0.5589
   0.500   0.3438   0.03117   0.01983  -0.0889  0.8218  1.0000  -0.6578   0.0000   0.0000   0.0000   0.5075
   1.000   0.4095   0.03183   0.02015  -0.0909  0.8022  1.0000  -0.7048   0.0000   0.0000   0.0000   0.4701
   1.500   0.4618   0.03282   0.02090  -0.0909  0.7802  1.0000  -0.7449   0.0000   0.0000   0.0000   0.4443
   2.000   0.5224   0.03356   0.02145  -0.0918  0.7615  1.0000  -0.7941   0.0000   0.0000   0.0000   0.4227
   2.500   0.5733   0.03466   0.02243  -0.0915  0.7413  1.0000  -0.8386   0.0000   0.0000   0.0000   0.4058
   3.000   0.6231   0.03583   0.02353  -0.0909  0.7214  1.0000  -0.8857   0.0000   0.0000   0.0000   0.3917
   3.500   0.6793   0.03671   0.02440  -0.0909  0.7039  1.0000  -0.9427   0.0000   0.0000   0.0000   0.3791
   4.000   0.7207   0.03838   0.02611  -0.0894  0.6835  1.0000  -0.9912   0.0000   0.0000   0.0000   0.3688
   4.500   0.7650   0.03992   0.02771  -0.0882  0.6639  1.0000  -1.0492   0.0000   0.0000   0.0000   0.3594
   5.000   0.8170   0.04102   0.02893  -0.0875  0.6463  1.0000  -1.1280   0.0000   0.0000   0.0000   0.3506
   5.500   0.8527   0.04311   0.03116  -0.0854  0.6255  1.0000  -1.2128   0.0000   0.0000   0.0000   0.3431
   6.000   0.8914   0.04500   0.03322  -0.0834  0.6051  1.0000  -1.3295   0.0000   0.0000   0.0000   0.3360
   6.500   0.9461   0.04579   0.03425  -0.0824  0.5871  1.0000  -1.5014   0.0000   0.0000   0.0000   0.3289
   7.000   0.9623   0.04907   0.03773  -0.0786  0.5625  1.0000  -1.6129   0.0000   0.0000   0.0000   0.3229
   7.500   1.0234   0.04910   0.03808  -0.0774  0.5435  1.0000  -1.8454   0.0000   0.0000   0.0000   0.3163
   8.000   1.0400   0.05214   0.04137  -0.0733  0.5175  1.0000  -1.9838   0.0000   0.0000   0.0000   0.3105
   8.500   1.0698   0.05399   0.04355  -0.0698  0.4916  1.0000  -2.1721   0.0000   0.0000   0.0000   0.3045
   9.000   1.1149   0.05399   0.04388  -0.0663  0.4644  1.0000  -2.4188   0.0000   0.0000   0.0000   0.2980
   9.500   1.1767   0.05157   0.04184  -0.0627  0.4324  1.0000  -2.7557   0.0000   0.0000   0.0000   0.2910
  10.000   1.2071   0.05128   0.04185  -0.0574  0.3951  1.0000  -2.9994   0.0000   0.0000   0.0000   0.2844
  10.500   1.2313   0.05107   0.04183  -0.0517  0.3530  1.0000  -3.2461   0.0000   0.0000   0.0000   0.2779
  11.000   1.2438   0.05215   0.04292  -0.0462  0.3066  1.0000  -3.4515   0.0000   0.0000   0.0000   0.2721
  11.500   1.2451   0.05514   0.04576  -0.0414  0.2585  1.0000  -3.6053   0.0000   0.0000   0.0000   0.2672
  12.000   1.2415   0.05966   0.04998  -0.0376  0.2161  1.0000  -3.7274   0.0000   0.0000   0.0000   0.2633
  12.500   1.2374   0.06520   0.05529  -0.0349  0.1831  1.0000  -3.8358   0.0000   0.0000   0.0000   0.2603
  13.000   1.2339   0.07151   0.06164  -0.0330  0.1585  1.0000  -3.9403   0.0000   0.0000   0.0000   0.2580
  13.500   1.2354   0.07767   0.06790  -0.0316  0.1398  1.0000  -4.0588   0.0000   0.0000   0.0000   0.2560
  14.000   1.2424   0.08351   0.07380  -0.0303  0.1251  1.0000  -4.1974   0.0000   0.0000   0.0000   0.2539
  14.500   1.2343   0.09179   0.08247  -0.0307  0.1153  1.0000  -4.2440   0.0000   0.0000   0.0000   0.2535
  15.000   1.2232   0.10085   0.09185  -0.0320  0.1080  1.0000  -4.2670   0.0000   0.0000   0.0000   0.2539


