xflr5 v6.61

 Calculated polar for: NACA 4412

 1 1 Reynolds number fixed          Mach number fixed         

 xtrf =   1.000 (top)        1.000 (bottom)
 Mach =   0.000     Re =     0.100 e 6     Ncrit =   6.000

  alpha     CL        CD       CDp       Cm    Top Xtr Bot Xtr   Cpmin    Chinge    XCp    
 ------- -------- --------- --------- -------- ------- ------- -------- --------- ---------
 -15.000  -0.4128   0.17471   0.16892  -0.0210  1.0000  0.0542  -1.4995   0.0000   0.0000   0.0000   0.1801
 -14.500  -0.4008   0.16857   0.16280  -0.0241  1.0000  0.0571  -1.5076   0.0000   0.0000   0.0000   0.1713
 -14.000  -0.3961   0.16249   0.15678  -0.0282  1.0000  0.0582  -1.6072   0.0000   0.0000   0.0000   0.1607
 -13.500  -0.3755   0.15581   0.15010  -0.0287  1.0000  0.0613  -1.5143   0.0000   0.0000   0.0000   0.1554
 -13.000  -0.3796   0.15037   0.14472  -0.0337  1.0000  0.0645  -1.6706   0.0000   0.0000   0.0000   0.1439
 -12.500  -0.3554   0.14318   0.13755  -0.0332  1.0000  0.0672  -1.5451   0.0000   0.0000   0.0000   0.1391
 -12.000  -0.3520   0.13707   0.13149  -0.0363  1.0000  0.0705  -1.6070   0.0000   0.0000   0.0000   0.1302
 -11.500  -0.3493   0.13037   0.12488  -0.0388  1.0000  0.0716  -1.6654   0.0000   0.0000   0.0000   0.1227
 -11.000  -0.3343   0.12422   0.11875  -0.0388  1.0000  0.0741  -1.5954   0.0000   0.0000   0.0000   0.1180
 -10.500  -0.3423   0.11818   0.11281  -0.0420  1.0000  0.0778  -1.7026   0.0000   0.0000   0.0000   0.1127
 -10.000  -0.3299   0.11243   0.10713  -0.0408  1.0000  0.0813  -1.6331   0.0000   0.0000   0.0000   0.1120
  -8.500  -0.4184   0.08646   0.08162  -0.0424  1.0000  0.0517  -2.4686   0.0000   0.0000   0.0000   0.1384
  -8.000  -0.4534   0.08202   0.07737  -0.0382  1.0000  0.0511  -2.5641   0.0000   0.0000   0.0000   0.1569
  -7.500  -0.4647   0.06971   0.06505  -0.0483  0.9943  0.0500  -2.8169   0.0000   0.0000   0.0000   0.1377
  -7.000  -0.4515   0.03942   0.03272  -0.0749  0.9765  0.0520  -3.6427   0.0000   0.0000   0.0000   0.0746
  -6.500  -0.3895   0.03469   0.02747  -0.0797  0.9661  0.0553  -3.3599   0.0000   0.0000   0.0000   0.0353
  -6.000  -0.3233   0.03027   0.02222  -0.0843  0.9558  0.0617  -3.1312   0.0000   0.0000   0.0000  -0.0220
  -5.500  -0.2544   0.02702   0.01831  -0.0881  0.9449  0.0687  -2.8596   0.0000   0.0000   0.0000  -0.1089
  -5.000  -0.1877   0.02470   0.01549  -0.0906  0.9320  0.0782  -2.5681   0.0000   0.0000   0.0000  -0.2484
  -4.500  -0.1189   0.02310   0.01381  -0.0935  0.9196  0.0901  -2.2637   0.0000   0.0000   0.0000  -0.5584
  -4.000  -0.0493   0.02163   0.01224  -0.0963  0.9073  0.1067  -1.9726   0.0000   0.0000   0.0000  -1.7493
  -3.500   0.0175   0.02040   0.01101  -0.0984  0.8943  0.1291  -1.6990   0.0000   0.0000   0.0000   5.9937
  -3.000   0.0830   0.01932   0.00998  -0.1001  0.8807  0.1608  -1.4467   0.0000   0.0000   0.0000   1.4745
  -2.500   0.1474   0.01835   0.00914  -0.1014  0.8665  0.2055  -1.2130   0.0000   0.0000   0.0000   0.9466
  -2.000   0.2046   0.01758   0.00856  -0.1014  0.8482  0.2639  -1.0075   0.0000   0.0000   0.0000   0.7502
  -1.500   0.2643   0.01670   0.00796  -0.1017  0.8306  0.3516  -0.8204   0.0000   0.0000   0.0000   0.6373
  -1.000   0.3195   0.01543   0.00757  -0.1009  0.8127  0.5800  -0.6571   0.0000   0.0000   0.0000   0.5669
  -0.500   0.3975   0.01440   0.00725  -0.1031  0.7929  1.0000  -0.7089   0.0000   0.0000   0.0000   0.5091
   0.000   0.4546   0.01436   0.00683  -0.1028  0.7713  1.0000  -0.7519   0.0000   0.0000   0.0000   0.4752
   0.500   0.5088   0.01446   0.00663  -0.1021  0.7478  1.0000  -0.7949   0.0000   0.0000   0.0000   0.4489
   1.000   0.5628   0.01463   0.00655  -0.1014  0.7244  1.0000  -0.8397   0.0000   0.0000   0.0000   0.4278
   1.500   0.6182   0.01482   0.00649  -0.1009  0.7026  1.0000  -0.8878   0.0000   0.0000   0.0000   0.4103
   2.000   0.6704   0.01517   0.00667  -0.1000  0.6794  1.0000  -0.9365   0.0000   0.0000   0.0000   0.3957
   2.500   0.7250   0.01550   0.00682  -0.0995  0.6591  1.0000  -0.9899   0.0000   0.0000   0.0000   0.3832
   3.000   0.7765   0.01596   0.00719  -0.0986  0.6377  1.0000  -1.0449   0.0000   0.0000   0.0000   0.3724
   3.500   0.8293   0.01643   0.00758  -0.0979  0.6183  1.0000  -1.1063   0.0000   0.0000   0.0000   0.3629
   4.000   0.8823   0.01694   0.00799  -0.0972  0.6001  1.0000  -1.1759   0.0000   0.0000   0.0000   0.3545
   4.500   0.9325   0.01753   0.00863  -0.0962  0.5808  1.0000  -1.2640   0.0000   0.0000   0.0000   0.3470
   5.000   0.9833   0.01813   0.00926  -0.0952  0.5622  1.0000  -1.4025   0.0000   0.0000   0.0000   0.3401
   5.500   1.0344   0.01874   0.00987  -0.0943  0.5439  1.0000  -1.5755   0.0000   0.0000   0.0000   0.3338
   6.000   1.0829   0.01941   0.01065  -0.0929  0.5241  1.0000  -1.7696   0.0000   0.0000   0.0000   0.3279
   6.500   1.1303   0.02005   0.01138  -0.0914  0.5027  1.0000  -1.9859   0.0000   0.0000   0.0000   0.3223
   7.000   1.1749   0.02068   0.01213  -0.0893  0.4781  1.0000  -2.2180   0.0000   0.0000   0.0000   0.3168
   7.500   1.2162   0.02128   0.01282  -0.0866  0.4495  1.0000  -2.4590   0.0000   0.0000   0.0000   0.3113
   8.000   1.2539   0.02193   0.01359  -0.0834  0.4179  1.0000  -2.7159   0.0000   0.0000   0.0000   0.3059
   8.500   1.2868   0.02273   0.01452  -0.0795  0.3817  1.0000  -2.9671   0.0000   0.0000   0.0000   0.3004
   9.000   1.3134   0.02375   0.01561  -0.0748  0.3395  1.0000  -3.2156   0.0000   0.0000   0.0000   0.2948
   9.500   1.3295   0.02525   0.01703  -0.0688  0.2898  1.0000  -3.4443   0.0000   0.0000   0.0000   0.2888
  10.000   1.3346   0.02755   0.01914  -0.0619  0.2344  1.0000  -3.6372   0.0000   0.0000   0.0000   0.2827
  10.500   1.3323   0.03088   0.02223  -0.0555  0.1811  1.0000  -3.7999   0.0000   0.0000   0.0000   0.2771
  11.000   1.3264   0.03505   0.02623  -0.0501  0.1405  1.0000  -3.9430   0.0000   0.0000   0.0000   0.2724
  11.500   1.3201   0.03981   0.03092  -0.0458  0.1145  1.0000  -4.0860   0.0000   0.0000   0.0000   0.2684
  12.000   1.3147   0.04499   0.03612  -0.0426  0.0973  1.0000  -4.2324   0.0000   0.0000   0.0000   0.2652
  12.500   1.3094   0.05053   0.04171  -0.0403  0.0857  1.0000  -4.3759   0.0000   0.0000   0.0000   0.2626
  13.000   1.3079   0.05598   0.04727  -0.0385  0.0761  1.0000  -4.5293   0.0000   0.0000   0.0000   0.2604
  13.500   1.3090   0.06134   0.05275  -0.0370  0.0688  1.0000  -4.6909   0.0000   0.0000   0.0000   0.2583
  14.000   1.3125   0.06658   0.05811  -0.0358  0.0626  1.0000  -4.8628   0.0000   0.0000   0.0000   0.2563
  14.500   1.3190   0.07158   0.06318  -0.0347  0.0574  1.0000  -5.0492   0.0000   0.0000   0.0000   0.2544
  15.000   1.3275   0.07652   0.06831  -0.0338  0.0530  1.0000  -5.2462   0.0000   0.0000   0.0000   0.2525


