xflr5 v6.61

 Calculated polar for: NACA 4412

 1 1 Reynolds number fixed          Mach number fixed         

 xtrf =   1.000 (top)        1.000 (bottom)
 Mach =   0.000     Re =     0.160 e 6     Ncrit =   6.000

  alpha     CL        CD       CDp       Cm    Top Xtr Bot Xtr   Cpmin    Chinge    XCp    
 ------- -------- --------- --------- -------- ------- ------- -------- --------- ---------
 -15.000  -0.4129   0.17229   0.16770  -0.0210  1.0000  0.0386  -1.5575   0.0000   0.0000   0.0000   0.1798
 -14.500  -0.4077   0.16556   0.16099  -0.0260  1.0000  0.0407  -1.6910   0.0000   0.0000   0.0000   0.1674
 -14.000  -0.3924   0.15859   0.15404  -0.0277  1.0000  0.0413  -1.6482   0.0000   0.0000   0.0000   0.1608
 -13.500  -0.3768   0.15256   0.14802  -0.0292  1.0000  0.0428  -1.5965   0.0000   0.0000   0.0000   0.1541
 -13.000  -0.3671   0.14601   0.14151  -0.0319  1.0000  0.0451  -1.6332   0.0000   0.0000   0.0000   0.1450
 -12.500  -0.3712   0.13860   0.13414  -0.0369  1.0000  0.0462  -1.8337   0.0000   0.0000   0.0000   0.1332
 -12.000  -0.3503   0.13261   0.12818  -0.0365  1.0000  0.0478  -1.6907   0.0000   0.0000   0.0000   0.1287
 -11.500  -0.3498   0.12600   0.12162  -0.0398  1.0000  0.0516  -1.7795   0.0000   0.0000   0.0000   0.1196
 -10.000  -0.3757   0.09721   0.09301  -0.0468  1.0000  0.0354  -2.4654   0.0000   0.0000   0.0000   0.1109
  -9.500  -0.3971   0.08924   0.08517  -0.0472  1.0000  0.0354  -2.6745   0.0000   0.0000   0.0000   0.1180
  -9.000  -0.4413   0.08123   0.07734  -0.0455  1.0000  0.0355  -2.9750   0.0000   0.0000   0.0000   0.1354
  -8.500  -0.5222   0.04672   0.04231  -0.0762  0.9847  0.0347  -4.3079   0.0000   0.0000   0.0000   0.0935
  -8.000  -0.4912   0.03281   0.02684  -0.0865  0.9727  0.0367  -4.4762   0.0000   0.0000   0.0000   0.0628
  -7.500  -0.4336   0.02830   0.02157  -0.0903  0.9638  0.0395  -4.1876   0.0000   0.0000   0.0000   0.0304
  -7.000  -0.3703   0.02545   0.01824  -0.0935  0.9552  0.0435  -3.8124   0.0000   0.0000   0.0000  -0.0147
  -6.500  -0.3054   0.02272   0.01500  -0.0964  0.9460  0.0476  -3.5016   0.0000   0.0000   0.0000  -0.0788
  -6.000  -0.2383   0.02093   0.01296  -0.0991  0.9364  0.0535  -3.1401   0.0000   0.0000   0.0000  -0.1813
  -5.500  -0.1733   0.01932   0.01117  -0.1012  0.9258  0.0601  -2.7926   0.0000   0.0000   0.0000  -0.3522
  -5.000  -0.1102   0.01803   0.00976  -0.1027  0.9145  0.0690  -2.4680   0.0000   0.0000   0.0000  -0.7073
  -4.500  -0.0487   0.01690   0.00857  -0.1037  0.9025  0.0803  -2.1697   0.0000   0.0000   0.0000  -1.9290
  -4.000   0.0087   0.01597   0.00762  -0.1039  0.8877  0.0950  -1.8866   0.0000   0.0000   0.0000  12.4036
  -3.500   0.0663   0.01517   0.00683  -0.1041  0.8721  0.1153  -1.6313   0.0000   0.0000   0.0000   1.8463
  -3.000   0.1246   0.01445   0.00613  -0.1043  0.8561  0.1435  -1.3844   0.0000   0.0000   0.0000   1.0987
  -2.500   0.1820   0.01382   0.00559  -0.1043  0.8385  0.1817  -1.1637   0.0000   0.0000   0.0000   0.8297
  -2.000   0.2376   0.01330   0.00518  -0.1040  0.8181  0.2319  -0.9615   0.0000   0.0000   0.0000   0.6916
  -1.500   0.2933   0.01281   0.00484  -0.1038  0.7971  0.2996  -0.7790   0.0000   0.0000   0.0000   0.6056
  -1.000   0.3472   0.01222   0.00456  -0.1032  0.7747  0.4068  -0.6766   0.0000   0.0000   0.0000   0.5478
  -0.500   0.3931   0.01125   0.00455  -0.1005  0.7509  0.7027  -0.7128   0.0000   0.0000   0.0000   0.5053
   0.000   0.4736   0.01080   0.00438  -0.1041  0.7270  1.0000  -0.7692   0.0000   0.0000   0.0000   0.4686
   0.500   0.5259   0.01098   0.00425  -0.1031  0.7024  1.0000  -0.8116   0.0000   0.0000   0.0000   0.4442
   1.000   0.5776   0.01122   0.00424  -0.1022  0.6772  1.0000  -0.8555   0.0000   0.0000   0.0000   0.4244
   1.500   0.6298   0.01151   0.00431  -0.1013  0.6537  1.0000  -0.9018   0.0000   0.0000   0.0000   0.4077
   2.000   0.6821   0.01184   0.00443  -0.1004  0.6316  1.0000  -0.9511   0.0000   0.0000   0.0000   0.3936
   2.500   0.7342   0.01220   0.00465  -0.0996  0.6105  1.0000  -1.0031   0.0000   0.0000   0.0000   0.3815
   3.000   0.7863   0.01259   0.00492  -0.0988  0.5907  1.0000  -1.0592   0.0000   0.0000   0.0000   0.3710
   3.500   0.8385   0.01302   0.00524  -0.0981  0.5726  1.0000  -1.1206   0.0000   0.0000   0.0000   0.3618
   4.000   0.8903   0.01347   0.00564  -0.0973  0.5548  1.0000  -1.1898   0.0000   0.0000   0.0000   0.3536
   4.500   0.9416   0.01394   0.00610  -0.0965  0.5370  1.0000  -1.2830   0.0000   0.0000   0.0000   0.3462
   5.000   0.9925   0.01443   0.00660  -0.0956  0.5194  1.0000  -1.4279   0.0000   0.0000   0.0000   0.3394
   5.500   1.0427   0.01495   0.00712  -0.0946  0.5016  1.0000  -1.6049   0.0000   0.0000   0.0000   0.3333
   6.000   1.0917   0.01549   0.00769  -0.0933  0.4822  1.0000  -1.8048   0.0000   0.0000   0.0000   0.3274
   6.500   1.1383   0.01602   0.00826  -0.0917  0.4588  1.0000  -2.0254   0.0000   0.0000   0.0000   0.3219
   7.000   1.1823   0.01658   0.00887  -0.0896  0.4310  1.0000  -2.2629   0.0000   0.0000   0.0000   0.3164
   7.500   1.2240   0.01721   0.00954  -0.0872  0.4009  1.0000  -2.5105   0.0000   0.0000   0.0000   0.3112
   8.000   1.2628   0.01792   0.01032  -0.0843  0.3649  1.0000  -2.7740   0.0000   0.0000   0.0000   0.3060
   8.500   1.2958   0.01891   0.01124  -0.0806  0.3214  1.0000  -3.0288   0.0000   0.0000   0.0000   0.3007
   9.000   1.3206   0.02030   0.01249  -0.0758  0.2682  1.0000  -3.2809   0.0000   0.0000   0.0000   0.2952
   9.500   1.3334   0.02223   0.01418  -0.0695  0.2114  1.0000  -3.5017   0.0000   0.0000   0.0000   0.2892
  10.000   1.3416   0.02480   0.01650  -0.0635  0.1579  1.0000  -3.7070   0.0000   0.0000   0.0000   0.2836
  10.500   1.3473   0.02784   0.01935  -0.0580  0.1180  1.0000  -3.9022   0.0000   0.0000   0.0000   0.2785
  11.000   1.3525   0.03122   0.02267  -0.0533  0.0930  1.0000  -4.0992   0.0000   0.0000   0.0000   0.2740
  11.500   1.3572   0.03497   0.02646  -0.0494  0.0772  1.0000  -4.3040   0.0000   0.0000   0.0000   0.2701
  12.000   1.3608   0.03915   0.03076  -0.0462  0.0667  1.0000  -4.5020   0.0000   0.0000   0.0000   0.2668
  12.500   1.3617   0.04390   0.03563  -0.0437  0.0593  1.0000  -4.6878   0.0000   0.0000   0.0000   0.2640
  13.000   1.3617   0.04906   0.04094  -0.0418  0.0536  1.0000  -4.8651   0.0000   0.0000   0.0000   0.2616
  13.500   1.3606   0.05462   0.04668  -0.0405  0.0493  1.0000  -5.0333   0.0000   0.0000   0.0000   0.2597
  14.000   1.3586   0.06053   0.05271  -0.0397  0.0456  1.0000  -5.1991   0.0000   0.0000   0.0000   0.2581
  14.500   1.3596   0.06634   0.05872  -0.0392  0.0421  1.0000  -5.3726   0.0000   0.0000   0.0000   0.2568
  15.000   1.3599   0.07232   0.06486  -0.0389  0.0396  1.0000  -5.5591   0.0000   0.0000   0.0000   0.2555


