xflr5 v6.61

 Calculated polar for: NACA 4412

 1 1 Reynolds number fixed          Mach number fixed         

 xtrf =   1.000 (top)        1.000 (bottom)
 Mach =   0.000     Re =     0.130 e 6     Ncrit =   6.000

  alpha     CL        CD       CDp       Cm    Top Xtr Bot Xtr   Cpmin    Chinge    XCp    
 ------- -------- --------- --------- -------- ------- ------- -------- --------- ---------
 -15.000  -0.4145   0.17337   0.16827  -0.0216  1.0000  0.0457  -1.5647   0.0000   0.0000   0.0000   0.1786
 -14.500  -0.4080   0.16683   0.16178  -0.0259  1.0000  0.0464  -1.6559   0.0000   0.0000   0.0000   0.1678
 -14.000  -0.3881   0.16025   0.15521  -0.0267  1.0000  0.0479  -1.5484   0.0000   0.0000   0.0000   0.1627
 -13.500  -0.3762   0.15399   0.14897  -0.0291  1.0000  0.0503  -1.5605   0.0000   0.0000   0.0000   0.1544
 -13.000  -0.3774   0.14738   0.14240  -0.0339  1.0000  0.0519  -1.7269   0.0000   0.0000   0.0000   0.1426
 -12.500  -0.3562   0.14100   0.13605  -0.0337  1.0000  0.0543  -1.6010   0.0000   0.0000   0.0000   0.1378
 -12.000  -0.3585   0.13458   0.12968  -0.0380  1.0000  0.0579  -1.7299   0.0000   0.0000   0.0000   0.1274
 -11.500  -0.3478   0.12764   0.12280  -0.0391  1.0000  0.0587  -1.7157   0.0000   0.0000   0.0000   0.1212
 -11.000  -0.3360   0.12170   0.11689  -0.0396  1.0000  0.0605  -1.6645   0.0000   0.0000   0.0000   0.1161
 -10.000  -0.3515   0.10421   0.09954  -0.0442  1.0000  0.0451  -2.0528   0.0000   0.0000   0.0000   0.1098
  -9.500  -0.3625   0.09729   0.09273  -0.0447  1.0000  0.0451  -2.1764   0.0000   0.0000   0.0000   0.1134
  -9.000  -0.3820   0.09095   0.08652  -0.0436  1.0000  0.0447  -2.3069   0.0000   0.0000   0.0000   0.1239
  -8.000  -0.5044   0.04672   0.04175  -0.0734  0.9839  0.0402  -4.0036   0.0000   0.0000   0.0000   0.0945
  -7.500  -0.4613   0.03593   0.02982  -0.0821  0.9729  0.0423  -4.0016   0.0000   0.0000   0.0000   0.0616
  -7.000  -0.4060   0.03000   0.02278  -0.0863  0.9622  0.0467  -3.8026   0.0000   0.0000   0.0000   0.0263
  -6.500  -0.3426   0.02681   0.01907  -0.0895  0.9522  0.0506  -3.4937   0.0000   0.0000   0.0000  -0.0231
  -6.000  -0.2761   0.02440   0.01621  -0.0926  0.9419  0.0568  -3.1702   0.0000   0.0000   0.0000  -0.0985
  -5.500  -0.2071   0.02228   0.01372  -0.0956  0.9317  0.0639  -2.8400   0.0000   0.0000   0.0000  -0.2273
  -5.000  -0.1390   0.02064   0.01198  -0.0983  0.9211  0.0727  -2.5033   0.0000   0.0000   0.0000  -0.4777
  -4.500  -0.0742   0.01933   0.01051  -0.1001  0.9091  0.0850  -2.2075   0.0000   0.0000   0.0000  -1.1325
  -4.000  -0.0113   0.01818   0.00933  -0.1014  0.8962  0.1008  -1.9171   0.0000   0.0000   0.0000  -8.8879
  -3.500   0.0503   0.01717   0.00840  -0.1024  0.8825  0.1217  -1.6519   0.0000   0.0000   0.0000   2.3229
  -3.000   0.1115   0.01629   0.00756  -0.1032  0.8680  0.1521  -1.4025   0.0000   0.0000   0.0000   1.1893
  -2.500   0.1708   0.01553   0.00690  -0.1036  0.8520  0.1931  -1.1788   0.0000   0.0000   0.0000   0.8634
  -2.000   0.2268   0.01490   0.00642  -0.1033  0.8326  0.2472  -0.9759   0.0000   0.0000   0.0000   0.7095
  -1.500   0.2850   0.01421   0.00594  -0.1034  0.8143  0.3239  -0.7899   0.0000   0.0000   0.0000   0.6148
  -1.000   0.3370   0.01340   0.00567  -0.1024  0.7918  0.4714  -0.6689   0.0000   0.0000   0.0000   0.5546
  -0.500   0.3844   0.01228   0.00562  -0.0988  0.7707  0.8413  -0.7065   0.0000   0.0000   0.0000   0.5067
   0.000   0.4677   0.01212   0.00525  -0.1037  0.7472  1.0000  -0.7635   0.0000   0.0000   0.0000   0.4706
   0.500   0.5203   0.01228   0.00512  -0.1028  0.7224  1.0000  -0.8058   0.0000   0.0000   0.0000   0.4458
   1.000   0.5734   0.01248   0.00505  -0.1020  0.6986  1.0000  -0.8505   0.0000   0.0000   0.0000   0.4254
   1.500   0.6264   0.01275   0.00509  -0.1012  0.6752  1.0000  -0.8973   0.0000   0.0000   0.0000   0.4085
   2.000   0.6787   0.01308   0.00524  -0.1003  0.6524  1.0000  -0.9463   0.0000   0.0000   0.0000   0.3943
   2.500   0.7315   0.01345   0.00543  -0.0996  0.6315  1.0000  -0.9988   0.0000   0.0000   0.0000   0.3821
   3.000   0.7837   0.01387   0.00573  -0.0988  0.6113  1.0000  -1.0547   0.0000   0.0000   0.0000   0.3715
   3.500   0.8357   0.01432   0.00610  -0.0980  0.5918  1.0000  -1.1158   0.0000   0.0000   0.0000   0.3621
   4.000   0.8877   0.01480   0.00652  -0.0973  0.5737  1.0000  -1.1850   0.0000   0.0000   0.0000   0.3539
   4.500   0.9396   0.01531   0.00697  -0.0965  0.5563  1.0000  -1.2778   0.0000   0.0000   0.0000   0.3464
   5.000   0.9900   0.01585   0.00756  -0.0955  0.5378  1.0000  -1.4200   0.0000   0.0000   0.0000   0.3397
   5.500   1.0400   0.01641   0.00816  -0.0944  0.5193  1.0000  -1.5944   0.0000   0.0000   0.0000   0.3334
   6.000   1.0895   0.01699   0.00876  -0.0933  0.5003  1.0000  -1.7940   0.0000   0.0000   0.0000   0.3276
   6.500   1.1360   0.01757   0.00943  -0.0916  0.4778  1.0000  -2.0119   0.0000   0.0000   0.0000   0.3220
   7.000   1.1802   0.01814   0.01007  -0.0895  0.4515  1.0000  -2.2477   0.0000   0.0000   0.0000   0.3165
   7.500   1.2215   0.01875   0.01075  -0.0869  0.4216  1.0000  -2.4913   0.0000   0.0000   0.0000   0.3112
   8.000   1.2597   0.01944   0.01152  -0.0839  0.3888  1.0000  -2.7526   0.0000   0.0000   0.0000   0.3059
   8.500   1.2932   0.02031   0.01243  -0.0802  0.3492  1.0000  -3.0077   0.0000   0.0000   0.0000   0.3006
   9.000   1.3196   0.02153   0.01359  -0.0756  0.3006  1.0000  -3.2614   0.0000   0.0000   0.0000   0.2951
   9.500   1.3336   0.02328   0.01516  -0.0694  0.2456  1.0000  -3.4852   0.0000   0.0000   0.0000   0.2891
  10.000   1.3398   0.02580   0.01742  -0.0629  0.1888  1.0000  -3.6826   0.0000   0.0000   0.0000   0.2832
  10.500   1.3415   0.02902   0.02043  -0.0569  0.1418  1.0000  -3.8619   0.0000   0.0000   0.0000   0.2779
  11.000   1.3420   0.03274   0.02403  -0.0519  0.1102  1.0000  -4.0336   0.0000   0.0000   0.0000   0.2733
  11.500   1.3423   0.03687   0.02817  -0.0478  0.0908  1.0000  -4.2153   0.0000   0.0000   0.0000   0.2693
  12.000   1.3407   0.04156   0.03292  -0.0445  0.0784  1.0000  -4.3868   0.0000   0.0000   0.0000   0.2660
  12.500   1.3399   0.04656   0.03804  -0.0421  0.0692  1.0000  -4.5562   0.0000   0.0000   0.0000   0.2633
  13.000   1.3383   0.05193   0.04355  -0.0403  0.0623  1.0000  -4.7198   0.0000   0.0000   0.0000   0.2610
  13.500   1.3368   0.05754   0.04930  -0.0390  0.0568  1.0000  -4.8819   0.0000   0.0000   0.0000   0.2591
  14.000   1.3369   0.06319   0.05507  -0.0380  0.0524  1.0000  -5.0487   0.0000   0.0000   0.0000   0.2574
  14.500   1.3399   0.06871   0.06079  -0.0373  0.0483  1.0000  -5.2203   0.0000   0.0000   0.0000   0.2558
  15.000   1.3427   0.07434   0.06657  -0.0368  0.0448  1.0000  -5.4107   0.0000   0.0000   0.0000   0.2544


