xflr5 v6.61

 Calculated polar for: NACA 4412

 1 1 Reynolds number fixed          Mach number fixed         

 xtrf =   1.000 (top)        1.000 (bottom)
 Mach =   0.000     Re =     0.060 e 6     Ncrit =   6.000

  alpha     CL        CD       CDp       Cm    Top Xtr Bot Xtr   Cpmin    Chinge    XCp    
 ------- -------- --------- --------- -------- ------- ------- -------- --------- ---------
 -15.000  -0.4150   0.17862   0.17119  -0.0206  1.0000  0.0838  -1.4361   0.0000   0.0000   0.0000   0.1816
 -14.500  -0.4037   0.17258   0.16520  -0.0236  1.0000  0.0865  -1.4476   0.0000   0.0000   0.0000   0.1734
 -14.000  -0.3890   0.16634   0.15898  -0.0256  1.0000  0.0909  -1.4378   0.0000   0.0000   0.0000   0.1662
 -13.500  -0.3845   0.16101   0.15373  -0.0290  1.0000  0.0933  -1.5023   0.0000   0.0000   0.0000   0.1572
 -13.000  -0.3661   0.15399   0.14672  -0.0299  1.0000  0.0977  -1.4547   0.0000   0.0000   0.0000   0.1509
 -12.500  -0.3628   0.14843   0.14124  -0.0329  1.0000  0.1015  -1.5057   0.0000   0.0000   0.0000   0.1428
 -12.000  -0.3538   0.14266   0.13552  -0.0345  1.0000  0.1084  -1.5003   0.0000   0.0000   0.0000   0.1362
 -11.500  -0.3397   0.13590   0.12881  -0.0352  1.0000  0.1126  -1.4650   0.0000   0.0000   0.0000   0.1303
 -11.000  -0.3456   0.13099   0.12401  -0.0381  1.0000  0.1172  -1.5379   0.0000   0.0000   0.0000   0.1247
 -10.500  -0.3291   0.12402   0.11709  -0.0377  1.0000  0.1209  -1.4844   0.0000   0.0000   0.0000   0.1206
 -10.000  -0.3387   0.11909   0.11231  -0.0397  1.0000  0.1257  -1.5680   0.0000   0.0000   0.0000   0.1193
  -9.500  -0.3283   0.11309   0.10641  -0.0384  1.0000  0.1324  -1.5334   0.0000   0.0000   0.0000   0.1199
  -9.000  -0.3355   0.10785   0.10134  -0.0380  1.0000  0.1370  -1.5731   0.0000   0.0000   0.0000   0.1247
  -8.000  -0.4135   0.09169   0.08558  -0.0386  1.0000  0.0852  -2.1210   0.0000   0.0000   0.0000   0.1476
  -7.000  -0.4609   0.07598   0.07008  -0.0403  1.0000  0.0769  -2.4328   0.0000   0.0000   0.0000   0.1554
  -6.500  -0.4697   0.06641   0.06037  -0.0433  1.0000  0.0756  -2.5811   0.0000   0.0000   0.0000   0.1509
  -6.000  -0.4530   0.05211   0.04518  -0.0529  0.9967  0.0775  -2.8161   0.0000   0.0000   0.0000   0.1260
  -5.500  -0.3864   0.04311   0.03520  -0.0624  0.9845  0.0819  -2.7478   0.0000   0.0000   0.0000   0.0805
  -5.000  -0.3122   0.03673   0.02763  -0.0700  0.9726  0.0912  -2.6033   0.0000   0.0000   0.0000   0.0167
  -4.500  -0.2394   0.03315   0.02334  -0.0751  0.9583  0.1031  -2.3612   0.0000   0.0000   0.0000  -0.0744
  -4.000  -0.1626   0.03057   0.02023  -0.0800  0.9445  0.1194  -2.1132   0.0000   0.0000   0.0000  -0.2562
  -3.500  -0.0914   0.02882   0.01821  -0.0835  0.9281  0.1410  -1.8551   0.0000   0.0000   0.0000  -0.6854
  -3.000  -0.0148   0.02735   0.01660  -0.0877  0.9137  0.1734  -1.5976   0.0000   0.0000   0.0000  -5.8030
  -2.500   0.0507   0.02631   0.01561  -0.0897  0.8952  0.2158  -1.3640   0.0000   0.0000   0.0000   2.0465
  -2.000   0.1242   0.02524   0.01472  -0.0930  0.8798  0.2822  -1.1342   0.0000   0.0000   0.0000   1.0073
  -1.500   0.1899   0.02413   0.01401  -0.0948  0.8619  0.3846  -0.9333   0.0000   0.0000   0.0000   0.7536
  -1.000   0.2427   0.02233   0.01373  -0.0927  0.8446  0.7148  -0.7665   0.0000   0.0000   0.0000   0.6339
  -0.500   0.3284   0.02171   0.01293  -0.0968  0.8284  1.0000  -0.6554   0.0000   0.0000   0.0000   0.5452
   0.000   0.3862   0.02187   0.01266  -0.0970  0.8067  1.0000  -0.6966   0.0000   0.0000   0.0000   0.5005
   0.500   0.4509   0.02183   0.01228  -0.0980  0.7884  1.0000  -0.7445   0.0000   0.0000   0.0000   0.4660
   1.000   0.5063   0.02209   0.01228  -0.0977  0.7669  1.0000  -0.7885   0.0000   0.0000   0.0000   0.4407
   1.500   0.5663   0.02221   0.01219  -0.0978  0.7478  1.0000  -0.8382   0.0000   0.0000   0.0000   0.4200
   2.000   0.6234   0.02247   0.01229  -0.0976  0.7282  1.0000  -0.8888   0.0000   0.0000   0.0000   0.4033
   2.500   0.6768   0.02292   0.01265  -0.0969  0.7076  1.0000  -0.9395   0.0000   0.0000   0.0000   0.3894
   3.000   0.7346   0.02324   0.01287  -0.0968  0.6894  1.0000  -0.9978   0.0000   0.0000   0.0000   0.3774
   3.500   0.7863   0.02386   0.01347  -0.0959  0.6699  1.0000  -1.0560   0.0000   0.0000   0.0000   0.3670
   4.000   0.8372   0.02456   0.01418  -0.0949  0.6504  1.0000  -1.1203   0.0000   0.0000   0.0000   0.3579
   4.500   0.8911   0.02514   0.01480  -0.0942  0.6322  1.0000  -1.2012   0.0000   0.0000   0.0000   0.3497
   5.000   0.9442   0.02580   0.01549  -0.0934  0.6141  1.0000  -1.3215   0.0000   0.0000   0.0000   0.3424
   5.500   0.9888   0.02685   0.01671  -0.0916  0.5935  1.0000  -1.4662   0.0000   0.0000   0.0000   0.3355
   6.000   1.0400   0.02756   0.01753  -0.0905  0.5742  1.0000  -1.6486   0.0000   0.0000   0.0000   0.3293
   6.500   1.0875   0.02843   0.01858  -0.0888  0.5535  1.0000  -1.8488   0.0000   0.0000   0.0000   0.3234
   7.000   1.1341   0.02921   0.01955  -0.0869  0.5311  1.0000  -2.0688   0.0000   0.0000   0.0000   0.3177
   7.500   1.1770   0.03001   0.02057  -0.0844  0.5060  1.0000  -2.3034   0.0000   0.0000   0.0000   0.3121
   8.000   1.2191   0.03053   0.02128  -0.0815  0.4775  1.0000  -2.5527   0.0000   0.0000   0.0000   0.3065
   8.500   1.2576   0.03088   0.02177  -0.0779  0.4450  1.0000  -2.8166   0.0000   0.0000   0.0000   0.3008
   9.000   1.2825   0.03169   0.02278  -0.0726  0.4091  1.0000  -3.0454   0.0000   0.0000   0.0000   0.2947
   9.500   1.2985   0.03275   0.02404  -0.0664  0.3699  1.0000  -3.2642   0.0000   0.0000   0.0000   0.2885
  10.000   1.3021   0.03441   0.02578  -0.0591  0.3275  1.0000  -3.4473   0.0000   0.0000   0.0000   0.2818
  10.500   1.2989   0.03715   0.02844  -0.0523  0.2797  1.0000  -3.6031   0.0000   0.0000   0.0000   0.2759
  11.000   1.2880   0.04133   0.03246  -0.0466  0.2310  1.0000  -3.7229   0.0000   0.0000   0.0000   0.2709
  11.500   1.2733   0.04684   0.03775  -0.0424  0.1893  1.0000  -3.8169   0.0000   0.0000   0.0000   0.2670
  12.000   1.2600   0.05303   0.04378  -0.0395  0.1579  1.0000  -3.9047   0.0000   0.0000   0.0000   0.2642
  12.500   1.2520   0.05913   0.04973  -0.0373  0.1351  1.0000  -4.0194   0.0000   0.0000   0.0000   0.2617
  13.000   1.2515   0.06475   0.05532  -0.0355  0.1169  1.0000  -4.1580   0.0000   0.0000   0.0000   0.2594
  13.500   1.2581   0.06981   0.06047  -0.0338  0.1024  1.0000  -4.3204   0.0000   0.0000   0.0000   0.2569
  14.000   1.2713   0.07430   0.06507  -0.0319  0.0910  1.0000  -4.5081   0.0000   0.0000   0.0000   0.2543
  14.500   1.2822   0.07936   0.07035  -0.0306  0.0821  1.0000  -4.6785   0.0000   0.0000   0.0000   0.2522
  15.000   1.2934   0.08470   0.07595  -0.0295  0.0755  1.0000  -4.8401   0.0000   0.0000   0.0000   0.2502


