xflr5 v6.61

 Calculated polar for: NACA 4412

 1 1 Reynolds number fixed          Mach number fixed         

 xtrf =   1.000 (top)        1.000 (bottom)
 Mach =   0.000     Re =     0.080 e 6     Ncrit =   6.000

  alpha     CL        CD       CDp       Cm    Top Xtr Bot Xtr   Cpmin    Chinge    XCp    
 ------- -------- --------- --------- -------- ------- ------- -------- --------- ---------
 -15.000  -0.4220   0.17751   0.17107  -0.0228  1.0000  0.0644  -1.5678   0.0000   0.0000   0.0000   0.1774
 -14.500  -0.3999   0.16991   0.16348  -0.0235  1.0000  0.0671  -1.4606   0.0000   0.0000   0.0000   0.1726
 -14.000  -0.3958   0.16483   0.15846  -0.0277  1.0000  0.0710  -1.5491   0.0000   0.0000   0.0000   0.1622
 -13.500  -0.3757   0.15760   0.15124  -0.0284  1.0000  0.0743  -1.4800   0.0000   0.0000   0.0000   0.1566
 -13.000  -0.3716   0.15199   0.14568  -0.0318  1.0000  0.0778  -1.5496   0.0000   0.0000   0.0000   0.1470
 -12.500  -0.3580   0.14507   0.13881  -0.0332  1.0000  0.0796  -1.5318   0.0000   0.0000   0.0000   0.1401
 -12.000  -0.3477   0.13899   0.13277  -0.0349  1.0000  0.0835  -1.5257   0.0000   0.0000   0.0000   0.1329
 -11.500  -0.3511   0.13307   0.12694  -0.0384  1.0000  0.0857  -1.6199   0.0000   0.0000   0.0000   0.1250
 -11.000  -0.3374   0.12698   0.12089  -0.0386  1.0000  0.0919  -1.5607   0.0000   0.0000   0.0000   0.1201
 -10.500  -0.3314   0.12074   0.11473  -0.0394  1.0000  0.0950  -1.5564   0.0000   0.0000   0.0000   0.1161
 -10.000  -0.3295   0.11507   0.10916  -0.0401  1.0000  0.0988  -1.5823   0.0000   0.0000   0.0000   0.1142
  -8.500  -0.3917   0.09134   0.08586  -0.0420  1.0000  0.0638  -2.1942   0.0000   0.0000   0.0000   0.1321
  -8.000  -0.4248   0.08689   0.08161  -0.0378  1.0000  0.0631  -2.2910   0.0000   0.0000   0.0000   0.1519
  -7.500  -0.4562   0.08040   0.07529  -0.0373  1.0000  0.0624  -2.4333   0.0000   0.0000   0.0000   0.1603
  -7.000  -0.4699   0.06905   0.06389  -0.0446  0.9972  0.0617  -2.6608   0.0000   0.0000   0.0000   0.1477
  -6.500  -0.4333   0.04712   0.04078  -0.0656  0.9824  0.0613  -3.0812   0.0000   0.0000   0.0000   0.0901
  -6.000  -0.3740   0.03780   0.03022  -0.0739  0.9705  0.0670  -3.0327   0.0000   0.0000   0.0000   0.0431
  -5.500  -0.3070   0.03236   0.02376  -0.0789  0.9585  0.0734  -2.8632   0.0000   0.0000   0.0000  -0.0176
  -5.000  -0.2348   0.02918   0.01993  -0.0834  0.9467  0.0829  -2.5913   0.0000   0.0000   0.0000  -0.1174
  -4.500  -0.1633   0.02690   0.01724  -0.0871  0.9339  0.0954  -2.3083   0.0000   0.0000   0.0000  -0.2991
  -4.000  -0.0952   0.02519   0.01533  -0.0897  0.9192  0.1114  -2.0396   0.0000   0.0000   0.0000  -0.7162
  -3.500  -0.0239   0.02376   0.01375  -0.0928  0.9056  0.1348  -1.7612   0.0000   0.0000   0.0000  -3.7200
  -3.000   0.0474   0.02252   0.01261  -0.0958  0.8923  0.1665  -1.5028   0.0000   0.0000   0.0000   2.3061
  -2.500   0.1165   0.02141   0.01161  -0.0981  0.8785  0.2130  -1.2594   0.0000   0.0000   0.0000   1.1033
  -2.000   0.1756   0.02056   0.01095  -0.0985  0.8599  0.2744  -1.0533   0.0000   0.0000   0.0000   0.8167
  -1.500   0.2392   0.01951   0.01025  -0.0996  0.8437  0.3722  -0.8582   0.0000   0.0000   0.0000   0.6694
  -1.000   0.2949   0.01787   0.00982  -0.0983  0.8278  0.6663  -0.6912   0.0000   0.0000   0.0000   0.5847
  -0.500   0.3736   0.01713   0.00933  -0.1009  0.8086  1.0000  -0.6903   0.0000   0.0000   0.0000   0.5200
   0.000   0.4341   0.01703   0.00883  -0.1012  0.7887  1.0000  -0.7348   0.0000   0.0000   0.0000   0.4822
   0.500   0.4896   0.01710   0.00861  -0.1007  0.7664  1.0000  -0.7781   0.0000   0.0000   0.0000   0.4541
   1.000   0.5486   0.01713   0.00836  -0.1007  0.7460  1.0000  -0.8258   0.0000   0.0000   0.0000   0.4313
   1.500   0.6020   0.01738   0.00842  -0.0999  0.7231  1.0000  -0.8719   0.0000   0.0000   0.0000   0.4131
   2.000   0.6591   0.01758   0.00841  -0.0997  0.7030  1.0000  -0.9237   0.0000   0.0000   0.0000   0.3978
   2.500   0.7110   0.01801   0.00873  -0.0988  0.6810  1.0000  -0.9745   0.0000   0.0000   0.0000   0.3849
   3.000   0.7655   0.01840   0.00900  -0.0982  0.6612  1.0000  -1.0315   0.0000   0.0000   0.0000   0.3738
   3.500   0.8185   0.01890   0.00943  -0.0975  0.6417  1.0000  -1.0924   0.0000   0.0000   0.0000   0.3641
   4.000   0.8696   0.01950   0.01002  -0.0965  0.6219  1.0000  -1.1593   0.0000   0.0000   0.0000   0.3555
   4.500   0.9220   0.02008   0.01060  -0.0957  0.6034  1.0000  -1.2458   0.0000   0.0000   0.0000   0.3478
   5.000   0.9744   0.02070   0.01123  -0.0950  0.5852  1.0000  -1.3808   0.0000   0.0000   0.0000   0.3408
   5.500   1.0220   0.02148   0.01212  -0.0935  0.5652  1.0000  -1.5422   0.0000   0.0000   0.0000   0.3343
   6.000   1.0718   0.02216   0.01290  -0.0923  0.5456  1.0000  -1.7349   0.0000   0.0000   0.0000   0.3283
   6.500   1.1199   0.02288   0.01373  -0.0908  0.5248  1.0000  -1.9476   0.0000   0.0000   0.0000   0.3226
   7.000   1.1660   0.02355   0.01453  -0.0889  0.5014  1.0000  -2.1780   0.0000   0.0000   0.0000   0.3171
   7.500   1.2079   0.02419   0.01531  -0.0862  0.4742  1.0000  -2.4180   0.0000   0.0000   0.0000   0.3116
   8.000   1.2469   0.02476   0.01599  -0.0831  0.4437  1.0000  -2.6737   0.0000   0.0000   0.0000   0.3061
   8.500   1.2777   0.02555   0.01698  -0.0788  0.4091  1.0000  -2.9170   0.0000   0.0000   0.0000   0.3004
   9.000   1.3034   0.02647   0.01805  -0.0739  0.3706  1.0000  -3.1560   0.0000   0.0000   0.0000   0.2946
   9.500   1.3198   0.02776   0.01940  -0.0678  0.3262  1.0000  -3.3834   0.0000   0.0000   0.0000   0.2886
  10.000   1.3244   0.02980   0.02135  -0.0607  0.2763  1.0000  -3.5727   0.0000   0.0000   0.0000   0.2822
  10.500   1.3207   0.03299   0.02437  -0.0541  0.2228  1.0000  -3.7289   0.0000   0.0000   0.0000   0.2765
  11.000   1.3102   0.03745   0.02861  -0.0485  0.1761  1.0000  -3.8526   0.0000   0.0000   0.0000   0.2716
  11.500   1.2979   0.04282   0.03382  -0.0442  0.1433  1.0000  -3.9598   0.0000   0.0000   0.0000   0.2678
  12.000   1.2882   0.04858   0.03955  -0.0413  0.1202  1.0000  -4.0808   0.0000   0.0000   0.0000   0.2648
  12.500   1.2822   0.05438   0.04538  -0.0391  0.1040  1.0000  -4.2108   0.0000   0.0000   0.0000   0.2623
  13.000   1.2805   0.05992   0.05092  -0.0373  0.0918  1.0000  -4.3569   0.0000   0.0000   0.0000   0.2600
  13.500   1.2846   0.06503   0.05614  -0.0357  0.0815  1.0000  -4.5221   0.0000   0.0000   0.0000   0.2578
  14.000   1.2929   0.06977   0.06098  -0.0341  0.0734  1.0000  -4.7049   0.0000   0.0000   0.0000   0.2554
  14.500   1.3034   0.07445   0.06580  -0.0327  0.0667  1.0000  -4.8940   0.0000   0.0000   0.0000   0.2532
  15.000   1.3129   0.07946   0.07101  -0.0316  0.0611  1.0000  -5.0795   0.0000   0.0000   0.0000   0.2513


