xflr5 v6.61

 Calculated polar for: NACA 4412

 1 1 Reynolds number fixed          Mach number fixed         

 xtrf =   1.000 (top)        1.000 (bottom)
 Mach =   0.000     Re =     0.200 e 6     Ncrit =   6.000

  alpha     CL        CD       CDp       Cm    Top Xtr Bot Xtr   Cpmin    Chinge    XCp    
 ------- -------- --------- --------- -------- ------- ------- -------- --------- ---------
 -15.000  -0.4150   0.17072   0.16660  -0.0214  1.0000  0.0320  -1.6349   0.0000   0.0000   0.0000   0.1790
 -14.500  -0.4014   0.16452   0.16042  -0.0243  1.0000  0.0348  -1.6151   0.0000   0.0000   0.0000   0.1705
 -14.000  -0.4020   0.15685   0.15278  -0.0298  1.0000  0.0357  -1.8343   0.0000   0.0000   0.0000   0.1572
 -13.500  -0.3803   0.15069   0.14663  -0.0299  1.0000  0.0365  -1.6879   0.0000   0.0000   0.0000   0.1528
 -13.000  -0.3675   0.14456   0.14052  -0.0319  1.0000  0.0378  -1.6660   0.0000   0.0000   0.0000   0.1451
 -12.500  -0.3603   0.13761   0.13360  -0.0348  1.0000  0.0400  -1.7304   0.0000   0.0000   0.0000   0.1357
 -11.000  -0.3729   0.10861   0.10471  -0.0451  1.0000  0.0308  -2.4247   0.0000   0.0000   0.0000   0.1128
 -10.500  -0.3726   0.10197   0.09813  -0.0459  1.0000  0.0305  -2.4585   0.0000   0.0000   0.0000   0.1113
 -10.000  -0.3851   0.09401   0.09026  -0.0470  1.0000  0.0304  -2.6361   0.0000   0.0000   0.0000   0.1135
  -9.500  -0.4148   0.08548   0.08185  -0.0471  1.0000  0.0303  -2.9082   0.0000   0.0000   0.0000   0.1236
  -9.000  -0.5691   0.03726   0.03254  -0.0850  0.9816  0.0294  -5.1383   0.0000   0.0000   0.0000   0.0893
  -8.500  -0.5234   0.02980   0.02399  -0.0907  0.9727  0.0318  -4.9808   0.0000   0.0000   0.0000   0.0652
  -8.000  -0.4653   0.02638   0.02003  -0.0938  0.9646  0.0341  -4.6199   0.0000   0.0000   0.0000   0.0365
  -7.500  -0.4051   0.02327   0.01636  -0.0965  0.9564  0.0367  -4.2600   0.0000   0.0000   0.0000  -0.0006
  -6.500  -0.2767   0.01958   0.01211  -0.1013  0.9387  0.0446  -3.4935   0.0000   0.0000   0.0000  -0.1308
  -6.000  -0.2140   0.01814   0.01051  -0.1030  0.9281  0.0500  -3.1271   0.0000   0.0000   0.0000  -0.2482
  -5.500  -0.1534   0.01685   0.00909  -0.1040  0.9167  0.0561  -2.7786   0.0000   0.0000   0.0000  -0.4491
  -5.000  -0.0940   0.01581   0.00792  -0.1047  0.9044  0.0646  -2.4625   0.0000   0.0000   0.0000  -0.8934
  -4.500  -0.0357   0.01489   0.00699  -0.1051  0.8914  0.0749  -2.1609   0.0000   0.0000   0.0000  -2.7657
  -4.000   0.0207   0.01411   0.00619  -0.1051  0.8760  0.0887  -1.8746   0.0000   0.0000   0.0000   5.4314
  -3.500   0.0766   0.01347   0.00553  -0.1049  0.8591  0.1078  -1.6211   0.0000   0.0000   0.0000   1.6417
  -3.000   0.1335   0.01288   0.00495  -0.1049  0.8417  0.1339  -1.3737   0.0000   0.0000   0.0000   1.0461
  -2.500   0.1887   0.01240   0.00454  -0.1045  0.8216  0.1686  -1.1564   0.0000   0.0000   0.0000   0.8099
  -2.000   0.2447   0.01199   0.00417  -0.1043  0.8011  0.2154  -0.9529   0.0000   0.0000   0.0000   0.6797
  -1.500   0.2990   0.01163   0.00392  -0.1039  0.7779  0.2749  -0.7723   0.0000   0.0000   0.0000   0.5990
  -1.000   0.3530   0.01124   0.00372  -0.1034  0.7542  0.3588  -0.6815   0.0000   0.0000   0.0000   0.5432
  -0.500   0.4030   0.01051   0.00365  -0.1021  0.7302  0.5763  -0.7196   0.0000   0.0000   0.0000   0.5029
   0.000   0.4519   0.00981   0.00374  -0.0991  0.7054  0.8991  -0.7593   0.0000   0.0000   0.0000   0.4680
   0.500   0.5283   0.00990   0.00360  -0.1032  0.6795  1.0000  -0.8147   0.0000   0.0000   0.0000   0.4434
   1.000   0.5798   0.01016   0.00360  -0.1022  0.6551  1.0000  -0.8587   0.0000   0.0000   0.0000   0.4237
   1.500   0.6316   0.01045   0.00367  -0.1013  0.6317  1.0000  -0.9050   0.0000   0.0000   0.0000   0.4072
   2.000   0.6836   0.01076   0.00382  -0.1004  0.6096  1.0000  -0.9540   0.0000   0.0000   0.0000   0.3932
   2.500   0.7357   0.01111   0.00401  -0.0996  0.5892  1.0000  -1.0062   0.0000   0.0000   0.0000   0.3812
   3.000   0.7878   0.01149   0.00426  -0.0988  0.5706  1.0000  -1.0624   0.0000   0.0000   0.0000   0.3708
   3.500   0.8398   0.01188   0.00458  -0.0981  0.5523  1.0000  -1.1236   0.0000   0.0000   0.0000   0.3616
   4.000   0.8917   0.01229   0.00494  -0.0974  0.5350  1.0000  -1.1929   0.0000   0.0000   0.0000   0.3534
   4.500   0.9432   0.01272   0.00534  -0.0966  0.5182  1.0000  -1.2873   0.0000   0.0000   0.0000   0.3460
   5.000   0.9942   0.01319   0.00578  -0.0957  0.5014  1.0000  -1.4340   0.0000   0.0000   0.0000   0.3393
   5.500   1.0445   0.01367   0.00626  -0.0947  0.4838  1.0000  -1.6125   0.0000   0.0000   0.0000   0.3332
   6.000   1.0932   0.01414   0.00680  -0.0934  0.4630  1.0000  -1.8135   0.0000   0.0000   0.0000   0.3274
   6.500   1.1397   0.01466   0.00731  -0.0918  0.4381  1.0000  -2.0354   0.0000   0.0000   0.0000   0.3218
   7.000   1.1842   0.01521   0.00790  -0.0898  0.4097  1.0000  -2.2761   0.0000   0.0000   0.0000   0.3165
   7.500   1.2266   0.01584   0.00854  -0.0875  0.3773  1.0000  -2.5276   0.0000   0.0000   0.0000   0.3113
   8.000   1.2649   0.01665   0.00932  -0.0847  0.3379  1.0000  -2.7912   0.0000   0.0000   0.0000   0.3062
   8.500   1.2969   0.01779   0.01031  -0.0809  0.2889  1.0000  -3.0439   0.0000   0.0000   0.0000   0.3009
   9.000   1.3188   0.01934   0.01165  -0.0757  0.2330  1.0000  -3.2899   0.0000   0.0000   0.0000   0.2952
   9.500   1.3331   0.02141   0.01344  -0.0698  0.1767  1.0000  -3.5159   0.0000   0.0000   0.0000   0.2894
  10.000   1.3446   0.02389   0.01571  -0.0643  0.1295  1.0000  -3.7335   0.0000   0.0000   0.0000   0.2841
  10.500   1.3554   0.02663   0.01833  -0.0593  0.0978  1.0000  -3.9491   0.0000   0.0000   0.0000   0.2792
  11.000   1.3650   0.02969   0.02137  -0.0549  0.0782  1.0000  -4.1714   0.0000   0.0000   0.0000   0.2749
  11.500   1.3741   0.03305   0.02480  -0.0512  0.0655  1.0000  -4.3998   0.0000   0.0000   0.0000   0.2710
  12.000   1.3806   0.03691   0.02876  -0.0480  0.0570  1.0000  -4.6170   0.0000   0.0000   0.0000   0.2676
  12.500   1.3846   0.04131   0.03329  -0.0455  0.0510  1.0000  -4.8218   0.0000   0.0000   0.0000   0.2647
  13.000   1.3856   0.04629   0.03842  -0.0435  0.0464  1.0000  -5.0133   0.0000   0.0000   0.0000   0.2623
  13.500   1.3881   0.05142   0.04376  -0.0422  0.0423  1.0000  -5.2074   0.0000   0.0000   0.0000   0.2603
  14.000   1.3862   0.05730   0.04980  -0.0413  0.0394  1.0000  -5.3772   0.0000   0.0000   0.0000   0.2587
  14.500   1.3854   0.06333   0.05601  -0.0409  0.0368  1.0000  -5.5580   0.0000   0.0000   0.0000   0.2574
  15.000   1.3829   0.06971   0.06256  -0.0408  0.0347  1.0000  -5.7389   0.0000   0.0000   0.0000   0.2563


