xflr5 v6.61

 Calculated polar for: CLARK Y AIRFOIL

 1 1 Reynolds number fixed          Mach number fixed         

 xtrf =   1.000 (top)        1.000 (bottom)
 Mach =   0.000     Re =     0.200 e 6     Ncrit =   7.000

  alpha     CL        CD       CDp       Cm    Top Xtr Bot Xtr   Cpmin    Chinge    XCp    
 ------- -------- --------- --------- -------- ------- ------- -------- --------- ---------
 -15.000  -0.3124   0.16122   0.15753  -0.0268  1.0000  0.0360  -1.3633   0.0000   0.0000   0.0000   0.1499
 -14.500  -0.3274   0.15764   0.15395  -0.0310  1.0000  0.0382  -1.6304   0.0000   0.0000   0.0000   0.1409
 -14.000  -0.3064   0.15155   0.14786  -0.0304  1.0000  0.0397  -1.4551   0.0000   0.0000   0.0000   0.1365
 -13.500  -0.3013   0.14656   0.14287  -0.0317  1.0000  0.0422  -1.4484   0.0000   0.0000   0.0000   0.1306
 -13.000  -0.3272   0.14072   0.13705  -0.0370  1.0000  0.0444  -1.7777   0.0000   0.0000   0.0000   0.1231
 -12.500  -0.2969   0.13473   0.13106  -0.0349  1.0000  0.0467  -1.5056   0.0000   0.0000   0.0000   0.1186
 -12.000  -0.2982   0.12850   0.12485  -0.0372  1.0000  0.0506  -1.5724   0.0000   0.0000   0.0000   0.1118
 -11.500  -0.3088   0.12054   0.11694  -0.0405  1.0000  0.0521  -1.7288   0.0000   0.0000   0.0000   0.1059
 -11.000  -0.2891   0.11558   0.11199  -0.0392  1.0000  0.0553  -1.5490   0.0000   0.0000   0.0000   0.1018
  -9.500  -0.3767   0.09561   0.09201  -0.0435  1.0000  0.0607  -2.0474   0.0000   0.0000   0.0000   0.1227
  -9.000  -0.3676   0.09143   0.08789  -0.0416  1.0000  0.0637  -1.9190   0.0000   0.0000   0.0000   0.1259
  -8.000  -0.4978   0.04651   0.04230  -0.0710  0.9818  0.0440  -3.6509   0.0000   0.0000   0.0000   0.0981
  -7.500  -0.4653   0.03454   0.02900  -0.0772  0.9692  0.0447  -3.7241   0.0000   0.0000   0.0000   0.0744
  -7.000  -0.4077   0.03079   0.02503  -0.0805  0.9602  0.0467  -3.3648   0.0000   0.0000   0.0000   0.0427
  -6.500  -0.3464   0.02606   0.01953  -0.0838  0.9523  0.0481  -3.1226   0.0000   0.0000   0.0000  -0.0025
  -6.000  -0.2821   0.02272   0.01551  -0.0863  0.9440  0.0501  -2.8669   0.0000   0.0000   0.0000  -0.0679
  -5.500  -0.2206   0.02041   0.01267  -0.0876  0.9335  0.0515  -2.6263   0.0000   0.0000   0.0000  -0.1608
  -5.000  -0.1601   0.01850   0.01072  -0.0888  0.9228  0.0545  -2.3720   0.0000   0.0000   0.0000  -0.3213
  -4.500  -0.1004   0.01705   0.00913  -0.0894  0.9113  0.0573  -2.1490   0.0000   0.0000   0.0000  -0.6641
  -4.000  -0.0431   0.01578   0.00779  -0.0895  0.8988  0.0612  -1.9400   0.0000   0.0000   0.0000  -1.8718
  -3.500   0.0128   0.01486   0.00684  -0.0893  0.8855  0.0674  -1.7379   0.0000   0.0000   0.0000   7.3407
  -3.000   0.0677   0.01398   0.00594  -0.0888  0.8714  0.0782  -1.5453   0.0000   0.0000   0.0000   1.5820
  -2.500   0.1218   0.01295   0.00509  -0.0881  0.8559  0.1200  -1.3624   0.0000   0.0000   0.0000   0.9823
  -2.000   0.1726   0.01213   0.00466  -0.0870  0.8358  0.2273  -1.1828   0.0000   0.0000   0.0000   0.7588
  -1.500   0.2249   0.01143   0.00432  -0.0861  0.8172  0.3569  -0.9942   0.0000   0.0000   0.0000   0.6351
  -1.000   0.2697   0.01035   0.00416  -0.0836  0.7959  0.6156  -0.8214   0.0000   0.0000   0.0000   0.5607
  -0.500   0.3331   0.00972   0.00425  -0.0830  0.7778  0.9300  -0.6847   0.0000   0.0000   0.0000   0.4987
   0.000   0.4358   0.00969   0.00399  -0.0924  0.7588  1.0000  -0.7639   0.0000   0.0000   0.0000   0.4607
   0.500   0.4848   0.00978   0.00386  -0.0909  0.7376  1.0000  -0.8121   0.0000   0.0000   0.0000   0.4355
   1.000   0.5342   0.00991   0.00378  -0.0894  0.7161  1.0000  -0.8625   0.0000   0.0000   0.0000   0.4149
   1.500   0.5834   0.01007   0.00376  -0.0879  0.6933  1.0000  -0.9137   0.0000   0.0000   0.0000   0.3975
   2.000   0.6322   0.01026   0.00380  -0.0863  0.6684  1.0000  -0.9657   0.0000   0.0000   0.0000   0.3828
   2.500   0.6808   0.01049   0.00390  -0.0846  0.6413  1.0000  -1.0195   0.0000   0.0000   0.0000   0.3702
   3.000   0.7291   0.01075   0.00404  -0.0829  0.6109  1.0000  -1.0753   0.0000   0.0000   0.0000   0.3591
   3.500   0.7770   0.01108   0.00423  -0.0811  0.5775  1.0000  -1.1568   0.0000   0.0000   0.0000   0.3493
   4.000   0.8240   0.01150   0.00449  -0.0793  0.5392  1.0000  -1.2676   0.0000   0.0000   0.0000   0.3406
   4.500   0.8698   0.01203   0.00484  -0.0773  0.4976  1.0000  -1.3811   0.0000   0.0000   0.0000   0.3327
   5.000   0.9145   0.01268   0.00528  -0.0752  0.4566  1.0000  -1.5031   0.0000   0.0000   0.0000   0.3255
   5.500   0.9587   0.01338   0.00581  -0.0731  0.4173  1.0000  -1.6297   0.0000   0.0000   0.0000   0.3190
   6.000   1.0023   0.01415   0.00641  -0.0711  0.3836  1.0000  -1.7633   0.0000   0.0000   0.0000   0.3131
   6.500   1.0476   0.01490   0.00710  -0.0694  0.3605  1.0000  -1.9014   0.0000   0.0000   0.0000   0.3078
   7.000   1.0930   0.01565   0.00786  -0.0677  0.3408  1.0000  -2.0420   0.0000   0.0000   0.0000   0.3030
   7.500   1.1373   0.01645   0.00867  -0.0660  0.3221  1.0000  -2.2833   0.0000   0.0000   0.0000   0.2984
   8.000   1.1806   0.01722   0.00954  -0.0641  0.3021  1.0000  -2.6109   0.0000   0.0000   0.0000   0.2940
   8.500   1.2206   0.01802   0.01041  -0.0617  0.2768  1.0000  -2.9581   0.0000   0.0000   0.0000   0.2896
   9.000   1.2565   0.01889   0.01132  -0.0588  0.2426  1.0000  -3.3082   0.0000   0.0000   0.0000   0.2851
   9.500   1.2846   0.02009   0.01243  -0.0547  0.1981  1.0000  -3.6377   0.0000   0.0000   0.0000   0.2802
  10.000   1.3042   0.02193   0.01408  -0.0499  0.1565  1.0000  -3.9523   0.0000   0.0000   0.0000   0.2751
  10.500   1.3249   0.02392   0.01603  -0.0457  0.1308  1.0000  -4.2815   0.0000   0.0000   0.0000   0.2706
  11.000   1.3442   0.02611   0.01822  -0.0419  0.1117  1.0000  -4.6098   0.0000   0.0000   0.0000   0.2664
  11.500   1.3642   0.02838   0.02057  -0.0385  0.0952  1.0000  -4.9426   0.0000   0.0000   0.0000   0.2627
  12.000   1.3808   0.03106   0.02332  -0.0354  0.0764  1.0000  -5.2535   0.0000   0.0000   0.0000   0.2592
  12.500   1.3901   0.03456   0.02677  -0.0323  0.0487  1.0000  -5.5108   0.0000   0.0000   0.0000   0.2559
  13.000   1.3856   0.03958   0.03170  -0.0292  0.0296  1.0000  -5.7080   0.0000   0.0000   0.0000   0.2528
  13.500   1.3812   0.04502   0.03731  -0.0272  0.0251  1.0000  -5.9074   0.0000   0.0000   0.0000   0.2504
  14.000   1.3732   0.05129   0.04380  -0.0261  0.0231  1.0000  -6.0823   0.0000   0.0000   0.0000   0.2486
  14.500   1.3616   0.05853   0.05132  -0.0260  0.0219  1.0000  -6.2241   0.0000   0.0000   0.0000   0.2477
  15.000   1.3480   0.06662   0.05969  -0.0269  0.0209  1.0000  -6.3464   0.0000   0.0000   0.0000   0.2475


