xflr5 v6.61

 Calculated polar for: CLARK Y AIRFOIL

 1 1 Reynolds number fixed          Mach number fixed         

 xtrf =   1.000 (top)        1.000 (bottom)
 Mach =   0.000     Re =     0.160 e 6     Ncrit =   7.000

  alpha     CL        CD       CDp       Cm    Top Xtr Bot Xtr   Cpmin    Chinge    XCp    
 ------- -------- --------- --------- -------- ------- ------- -------- --------- ---------
 -15.000  -0.4557   0.17330   0.16885  -0.0122  1.0000  0.0388  -1.7816   0.0000   0.0000   0.0000   0.2062
 -14.500  -0.4378   0.16717   0.16272  -0.0140  1.0000  0.0410  -1.6977   0.0000   0.0000   0.0000   0.2014
 -14.000  -0.4401   0.16131   0.15691  -0.0206  1.0000  0.0443  -1.9238   0.0000   0.0000   0.0000   0.1871
 -13.500  -0.4157   0.15347   0.14907  -0.0205  1.0000  0.0458  -1.7631   0.0000   0.0000   0.0000   0.1848
 -13.000  -0.4020   0.14723   0.14285  -0.0227  1.0000  0.0491  -1.7197   0.0000   0.0000   0.0000   0.1779
 -12.500  -0.4083   0.13989   0.13557  -0.0288  1.0000  0.0519  -1.9244   0.0000   0.0000   0.0000   0.1645
 -12.000  -0.3831   0.13358   0.12926  -0.0280  1.0000  0.0547  -1.7315   0.0000   0.0000   0.0000   0.1621
 -11.500  -0.3911   0.12675   0.12249  -0.0345  1.0000  0.0593  -1.9261   0.0000   0.0000   0.0000   0.1479
 -11.000  -0.3734   0.11948   0.11525  -0.0342  1.0000  0.0613  -1.8159   0.0000   0.0000   0.0000   0.1446
 -10.500  -0.3615   0.11346   0.10926  -0.0355  1.0000  0.0650  -1.7525   0.0000   0.0000   0.0000   0.1386
 -10.000  -0.3926   0.10497   0.10092  -0.0459  1.0000  0.0686  -2.1279   0.0000   0.0000   0.0000   0.1213
  -9.500  -0.3611   0.09960   0.09554  -0.0404  1.0000  0.0714  -1.8338   0.0000   0.0000   0.0000   0.1261
  -7.500  -0.4818   0.04634   0.04152  -0.0678  0.9801  0.0512  -3.3698   0.0000   0.0000   0.0000   0.1005
  -7.000  -0.4396   0.03631   0.03041  -0.0733  0.9685  0.0519  -3.3415   0.0000   0.0000   0.0000   0.0741
  -6.500  -0.3839   0.03095   0.02446  -0.0765  0.9583  0.0530  -3.1048   0.0000   0.0000   0.0000   0.0411
  -6.000  -0.3222   0.02739   0.02037  -0.0793  0.9485  0.0552  -2.8342   0.0000   0.0000   0.0000  -0.0066
  -5.500  -0.2520   0.02385   0.01612  -0.0830  0.9415  0.0570  -2.5965   0.0000   0.0000   0.0000  -0.0911
  -5.000  -0.1857   0.02152   0.01325  -0.0852  0.9319  0.0599  -2.3693   0.0000   0.0000   0.0000  -0.2230
  -4.500  -0.1228   0.01959   0.01127  -0.0867  0.9210  0.0628  -2.1457   0.0000   0.0000   0.0000  -0.4753
  -4.000  -0.0603   0.01827   0.00979  -0.0878  0.9097  0.0680  -1.9279   0.0000   0.0000   0.0000  -1.2411
  -3.500  -0.0007   0.01693   0.00851  -0.0885  0.8977  0.0744  -1.7334   0.0000   0.0000   0.0000  -124.1451
  -3.000   0.0571   0.01587   0.00745  -0.0886  0.8850  0.0877  -1.5445   0.0000   0.0000   0.0000   1.8259
  -2.500   0.1130   0.01467   0.00649  -0.0884  0.8712  0.1344  -1.3689   0.0000   0.0000   0.0000   1.0428
  -2.000   0.1684   0.01360   0.00590  -0.0881  0.8560  0.2643  -1.1843   0.0000   0.0000   0.0000   0.7782
  -1.500   0.2174   0.01269   0.00556  -0.0865  0.8357  0.4240  -1.0027   0.0000   0.0000   0.0000   0.6504
  -1.000   0.2610   0.01129   0.00545  -0.0823  0.8171  0.7937  -0.8303   0.0000   0.0000   0.0000   0.5661
  -0.500   0.3605   0.01105   0.00519  -0.0895  0.7988  0.9816  -0.6981   0.0000   0.0000   0.0000   0.4978
   0.000   0.4331   0.01097   0.00483  -0.0928  0.7804  1.0000  -0.7597   0.0000   0.0000   0.0000   0.4630
   0.500   0.4815   0.01105   0.00469  -0.0911  0.7589  1.0000  -0.8073   0.0000   0.0000   0.0000   0.4373
   1.000   0.5304   0.01116   0.00461  -0.0895  0.7369  1.0000  -0.8572   0.0000   0.0000   0.0000   0.4162
   1.500   0.5798   0.01130   0.00457  -0.0879  0.7144  1.0000  -0.9084   0.0000   0.0000   0.0000   0.3985
   2.000   0.6290   0.01147   0.00459  -0.0862  0.6899  1.0000  -0.9607   0.0000   0.0000   0.0000   0.3835
   2.500   0.6781   0.01168   0.00466  -0.0846  0.6634  1.0000  -1.0147   0.0000   0.0000   0.0000   0.3707
   3.000   0.7270   0.01192   0.00478  -0.0829  0.6341  1.0000  -1.0712   0.0000   0.0000   0.0000   0.3595
   3.500   0.7753   0.01222   0.00496  -0.0812  0.6014  1.0000  -1.1526   0.0000   0.0000   0.0000   0.3496
   4.000   0.8228   0.01261   0.00519  -0.0793  0.5645  1.0000  -1.2632   0.0000   0.0000   0.0000   0.3408
   4.500   0.8691   0.01310   0.00552  -0.0773  0.5242  1.0000  -1.3770   0.0000   0.0000   0.0000   0.3329
   5.000   0.9145   0.01373   0.00597  -0.0753  0.4840  1.0000  -1.4991   0.0000   0.0000   0.0000   0.3257
   5.500   0.9594   0.01443   0.00651  -0.0733  0.4468  1.0000  -1.6251   0.0000   0.0000   0.0000   0.3192
   6.000   1.0030   0.01519   0.00712  -0.0711  0.4111  1.0000  -1.7582   0.0000   0.0000   0.0000   0.3131
   6.500   1.0467   0.01601   0.00781  -0.0691  0.3827  1.0000  -1.8938   0.0000   0.0000   0.0000   0.3077
   7.000   1.0916   0.01682   0.00862  -0.0674  0.3604  1.0000  -2.0329   0.0000   0.0000   0.0000   0.3028
   7.500   1.1357   0.01767   0.00952  -0.0656  0.3396  1.0000  -2.2657   0.0000   0.0000   0.0000   0.2982
   8.000   1.1782   0.01858   0.01046  -0.0636  0.3195  1.0000  -2.5891   0.0000   0.0000   0.0000   0.2937
   8.500   1.2181   0.01948   0.01146  -0.0612  0.2967  1.0000  -2.9306   0.0000   0.0000   0.0000   0.2893
   9.000   1.2533   0.02037   0.01249  -0.0581  0.2671  1.0000  -3.2752   0.0000   0.0000   0.0000   0.2847
   9.500   1.2821   0.02142   0.01358  -0.0542  0.2282  1.0000  -3.6057   0.0000   0.0000   0.0000   0.2799
  10.000   1.3024   0.02299   0.01505  -0.0493  0.1849  1.0000  -3.9174   0.0000   0.0000   0.0000   0.2747
  10.500   1.3188   0.02514   0.01707  -0.0446  0.1525  1.0000  -4.2254   0.0000   0.0000   0.0000   0.2698
  11.000   1.3355   0.02748   0.01943  -0.0404  0.1315  1.0000  -4.5377   0.0000   0.0000   0.0000   0.2655
  11.500   1.3517   0.03001   0.02203  -0.0368  0.1140  1.0000  -4.8501   0.0000   0.0000   0.0000   0.2616
  12.000   1.3670   0.03279   0.02493  -0.0337  0.0969  1.0000  -5.1571   0.0000   0.0000   0.0000   0.2582
  12.500   1.3782   0.03613   0.02836  -0.0309  0.0774  1.0000  -5.4336   0.0000   0.0000   0.0000   0.2551
  13.000   1.3815   0.04047   0.03271  -0.0283  0.0509  1.0000  -5.6530   0.0000   0.0000   0.0000   0.2522
  13.500   1.3729   0.04632   0.03856  -0.0262  0.0353  1.0000  -5.8182   0.0000   0.0000   0.0000   0.2498
  14.000   1.3620   0.05292   0.04530  -0.0251  0.0301  1.0000  -5.9663   0.0000   0.0000   0.0000   0.2481
  14.500   1.3488   0.06036   0.05297  -0.0252  0.0274  1.0000  -6.0951   0.0000   0.0000   0.0000   0.2473
  15.000   1.3309   0.06907   0.06193  -0.0264  0.0260  1.0000  -6.1808   0.0000   0.0000   0.0000   0.2474


