xflr5 v6.61

 Calculated polar for: CLARK Y AIRFOIL

 1 1 Reynolds number fixed          Mach number fixed         

 xtrf =   1.000 (top)        1.000 (bottom)
 Mach =   0.000     Re =     0.060 e 6     Ncrit =   7.000

  alpha     CL        CD       CDp       Cm    Top Xtr Bot Xtr   Cpmin    Chinge    XCp    
 ------- -------- --------- --------- -------- ------- ------- -------- --------- ---------
 -15.000  -0.4715   0.18514   0.17796  -0.0139  1.0000  0.0899  -1.6902   0.0000   0.0000   0.0000   0.2047
 -14.500  -0.4377   0.17330   0.16611  -0.0136  1.0000  0.0947  -1.5484   0.0000   0.0000   0.0000   0.2026
 -14.000  -0.4350   0.16961   0.16248  -0.0179  1.0000  0.1008  -1.6131   0.0000   0.0000   0.0000   0.1933
 -13.500  -0.4129   0.16096   0.15384  -0.0189  1.0000  0.1054  -1.5391   0.0000   0.0000   0.0000   0.1886
 -13.000  -0.4081   0.15613   0.14907  -0.0223  1.0000  0.1121  -1.5679   0.0000   0.0000   0.0000   0.1805
 -12.500  -0.3905   0.14846   0.14143  -0.0235  1.0000  0.1175  -1.5221   0.0000   0.0000   0.0000   0.1751
 -12.000  -0.3962   0.14463   0.13769  -0.0276  1.0000  0.1247  -1.6022   0.0000   0.0000   0.0000   0.1666
 -11.500  -0.3707   0.13596   0.12903  -0.0274  1.0000  0.1313  -1.5034   0.0000   0.0000   0.0000   0.1622
 -11.000  -0.3741   0.13065   0.12383  -0.0307  1.0000  0.1385  -1.5548   0.0000   0.0000   0.0000   0.1551
 -10.500  -0.3658   0.12479   0.11802  -0.0319  1.0000  0.1485  -1.5300   0.0000   0.0000   0.0000   0.1502
 -10.000  -0.3495   0.11768   0.11096  -0.0319  1.0000  0.1562  -1.4735   0.0000   0.0000   0.0000   0.1463
  -9.500  -0.3476   0.11187   0.10525  -0.0331  1.0000  0.1656  -1.4733   0.0000   0.0000   0.0000   0.1433
  -9.000  -0.3639   0.10737   0.10095  -0.0349  1.0000  0.1750  -1.5372   0.0000   0.0000   0.0000   0.1439
  -8.500  -0.3613   0.10201   0.09571  -0.0334  1.0000  0.1857  -1.5065   0.0000   0.0000   0.0000   0.1481
  -8.000  -0.3585   0.09660   0.09043  -0.0306  1.0000  0.1959  -1.4659   0.0000   0.0000   0.0000   0.1556
  -7.500  -0.3759   0.09246   0.08652  -0.0267  1.0000  0.2046  -1.4743   0.0000   0.0000   0.0000   0.1710
  -6.500  -0.4591   0.08604   0.08056  -0.0207  1.0000  0.2246  -1.6291   0.0000   0.0000   0.0000   0.1997
  -6.000  -0.4741   0.06779   0.06195  -0.0331  1.0000  0.1288  -2.0342   0.0000   0.0000   0.0000   0.1749
  -5.500  -0.4672   0.05113   0.04389  -0.0412  1.0000  0.1012  -2.4197   0.0000   0.0000   0.0000   0.1561
  -5.000  -0.4371   0.04464   0.03663  -0.0414  1.0000  0.1011  -2.3690   0.0000   0.0000   0.0000   0.1493
  -4.500  -0.3935   0.03916   0.03029  -0.0425  0.9990  0.1008  -2.2801   0.0000   0.0000   0.0000   0.1360
  -4.000  -0.3177   0.03515   0.02570  -0.0485  0.9881  0.1061  -2.0771   0.0000   0.0000   0.0000   0.0906
  -3.500  -0.2382   0.03187   0.02147  -0.0539  0.9769  0.1120  -1.9300   0.0000   0.0000   0.0000   0.0156
  -3.000  -0.1644   0.02986   0.01911  -0.0581  0.9638  0.1237  -1.7525   0.0000   0.0000   0.0000  -0.1136
  -2.500  -0.0922   0.02832   0.01757  -0.0618  0.9501  0.1444  -1.5905   0.0000   0.0000   0.0000  -0.4358
  -2.000  -0.0200   0.02701   0.01651  -0.0653  0.9359  0.2038  -1.4325   0.0000   0.0000   0.0000  -3.0664
  -1.500   0.0495   0.02514   0.01615  -0.0689  0.9221  0.4758  -1.2626   0.0000   0.0000   0.0000   1.6578
  -1.000   0.1277   0.02410   0.01613  -0.0710  0.9074  1.0000  -1.0449   0.0000   0.0000   0.0000   0.8104
  -0.500   0.1956   0.02460   0.01603  -0.0738  0.8864  1.0000  -0.8437   0.0000   0.0000   0.0000   0.6286
   0.000   0.2743   0.02464   0.01562  -0.0777  0.8624  1.0000  -0.6407   0.0000   0.0000   0.0000   0.5326
   0.500   0.3524   0.02454   0.01518  -0.0810  0.8412  1.0000  -0.6970   0.0000   0.0000   0.0000   0.4784
   1.000   0.4185   0.02456   0.01498  -0.0822  0.8202  1.0000  -0.7541   0.0000   0.0000   0.0000   0.4443
   1.500   0.4781   0.02463   0.01489  -0.0822  0.7974  1.0000  -0.8091   0.0000   0.0000   0.0000   0.4191
   2.000   0.5387   0.02457   0.01472  -0.0820  0.7744  1.0000  -0.8665   0.0000   0.0000   0.0000   0.3989
   2.500   0.5992   0.02440   0.01448  -0.0815  0.7506  1.0000  -0.9264   0.0000   0.0000   0.0000   0.3822
   3.000   0.6582   0.02420   0.01423  -0.0807  0.7248  1.0000  -0.9893   0.0000   0.0000   0.0000   0.3682
   3.500   0.7170   0.02396   0.01397  -0.0796  0.6972  1.0000  -1.0608   0.0000   0.0000   0.0000   0.3562
   4.000   0.7773   0.02367   0.01366  -0.0787  0.6686  1.0000  -1.1772   0.0000   0.0000   0.0000   0.3459
   4.500   0.8279   0.02390   0.01389  -0.0767  0.6345  1.0000  -1.2922   0.0000   0.0000   0.0000   0.3368
   5.000   0.8807   0.02419   0.01416  -0.0751  0.6015  1.0000  -1.4143   0.0000   0.0000   0.0000   0.3290
   5.500   0.9337   0.02463   0.01459  -0.0737  0.5702  1.0000  -1.5450   0.0000   0.0000   0.0000   0.3221
   6.000   0.9821   0.02545   0.01542  -0.0720  0.5396  1.0000  -1.6728   0.0000   0.0000   0.0000   0.3159
   6.500   1.0301   0.02632   0.01634  -0.0702  0.5106  1.0000  -1.8081   0.0000   0.0000   0.0000   0.3102
   7.000   1.0789   0.02713   0.01716  -0.0685  0.4822  1.0000  -1.9481   0.0000   0.0000   0.0000   0.3049
   7.500   1.1194   0.02809   0.01823  -0.0657  0.4502  1.0000  -2.1066   0.0000   0.0000   0.0000   0.2994
   8.000   1.1638   0.02891   0.01904  -0.0633  0.4196  1.0000  -2.4272   0.0000   0.0000   0.0000   0.2944
   8.500   1.2001   0.03022   0.02055  -0.0602  0.3891  1.0000  -2.7285   0.0000   0.0000   0.0000   0.2895
   9.000   1.2403   0.03148   0.02185  -0.0575  0.3582  1.0000  -3.0720   0.0000   0.0000   0.0000   0.2850
   9.500   1.2699   0.03322   0.02378  -0.0537  0.3247  1.0000  -3.3855   0.0000   0.0000   0.0000   0.2802
  10.000   1.2967   0.03519   0.02589  -0.0495  0.2907  1.0000  -3.6931   0.0000   0.0000   0.0000   0.2754
  10.500   1.3215   0.03729   0.02806  -0.0453  0.2596  1.0000  -4.0002   0.0000   0.0000   0.0000   0.2707
  11.000   1.3388   0.03970   0.03067  -0.0405  0.2335  1.0000  -4.2886   0.0000   0.0000   0.0000   0.2659
  11.500   1.3480   0.04194   0.03301  -0.0350  0.2114  1.0000  -4.5533   0.0000   0.0000   0.0000   0.2607
  12.000   1.3461   0.04478   0.03605  -0.0293  0.1913  1.0000  -4.7674   0.0000   0.0000   0.0000   0.2557
  12.500   1.3420   0.04836   0.03984  -0.0248  0.1730  1.0000  -4.9655   0.0000   0.0000   0.0000   0.2515
  13.000   1.3351   0.05239   0.04391  -0.0212  0.1550  1.0000  -5.1534   0.0000   0.0000   0.0000   0.2480
  13.500   1.3163   0.05833   0.05017  -0.0190  0.1386  1.0000  -5.2560   0.0000   0.0000   0.0000   0.2455
  14.000   1.3031   0.06445   0.05635  -0.0177  0.1226  1.0000  -5.3749   0.0000   0.0000   0.0000   0.2436
  14.500   1.2757   0.07320   0.06546  -0.0182  0.1078  1.0000  -5.3743   0.0000   0.0000   0.0000   0.2433
  15.000   1.2551   0.08154   0.07375  -0.0190  0.0918  1.0000  -5.3989   0.0000   0.0000   0.0000   0.2432


