xflr5 v6.61

 Calculated polar for: CLARK Y AIRFOIL

 1 1 Reynolds number fixed          Mach number fixed         

 xtrf =   1.000 (top)        1.000 (bottom)
 Mach =   0.000     Re =     0.100 e 6     Ncrit =   7.000

  alpha     CL        CD       CDp       Cm    Top Xtr Bot Xtr   Cpmin    Chinge    XCp    
 ------- -------- --------- --------- -------- ------- ------- -------- --------- ---------
 -15.000  -0.3105   0.16366   0.15849  -0.0269  1.0000  0.0621  -1.2787   0.0000   0.0000   0.0000   0.1494
 -14.500  -0.3067   0.16019   0.15501  -0.0286  1.0000  0.0670  -1.2997   0.0000   0.0000   0.0000   0.1429
 -14.000  -0.3343   0.16057   0.15540  -0.0325  1.0000  0.0687  -1.5248   0.0000   0.0000   0.0000   0.1396
 -13.500  -0.2982   0.15039   0.14522  -0.0312  1.0000  0.0722  -1.3221   0.0000   0.0000   0.0000   0.1315
 -13.000  -0.3011   0.14615   0.14099  -0.0332  1.0000  0.0777  -1.3751   0.0000   0.0000   0.0000   0.1261
 -12.500  -0.3106   0.14091   0.13579  -0.0358  1.0000  0.0795  -1.4830   0.0000   0.0000   0.0000   0.1217
 -12.000  -0.4055   0.13903   0.13366  -0.0320  1.0000  0.0792  -1.8306   0.0000   0.0000   0.0000   0.1574
 -11.500  -0.3719   0.13078   0.12538  -0.0296  1.0000  0.0833  -1.6265   0.0000   0.0000   0.0000   0.1563
 -11.000  -0.3817   0.12545   0.12014  -0.0352  1.0000  0.0894  -1.7593   0.0000   0.0000   0.0000   0.1448
 -10.500  -0.3624   0.11766   0.11238  -0.0347  1.0000  0.0926  -1.6582   0.0000   0.0000   0.0000   0.1414
 -10.000  -0.3549   0.11163   0.10640  -0.0361  1.0000  0.0985  -1.6404   0.0000   0.0000   0.0000   0.1357
  -9.500  -0.3682   0.10493   0.09985  -0.0402  1.0000  0.1025  -1.7586   0.0000   0.0000   0.0000   0.1297
  -9.000  -0.3524   0.09947   0.09443  -0.0382  1.0000  0.1086  -1.6439   0.0000   0.0000   0.0000   0.1307
  -8.500  -0.4123   0.09539   0.09069  -0.0407  1.0000  0.1129  -1.9133   0.0000   0.0000   0.0000   0.1426
  -8.000  -0.3940   0.08943   0.08477  -0.0354  1.0000  0.1159  -1.7603   0.0000   0.0000   0.0000   0.1519
  -7.500  -0.4230   0.08646   0.08199  -0.0293  1.0000  0.1196  -1.7764   0.0000   0.0000   0.0000   0.1736
  -7.000  -0.4962   0.07997   0.07554  -0.0353  1.0000  0.1250  -2.1221   0.0000   0.0000   0.0000   0.1732
  -6.500  -0.4633   0.05574   0.05061  -0.0510  0.9885  0.0768  -2.5520   0.0000   0.0000   0.0000   0.1332
  -6.000  -0.4134   0.04334   0.03722  -0.0602  0.9770  0.0731  -2.6000   0.0000   0.0000   0.0000   0.0970
  -5.500  -0.3549   0.03470   0.02726  -0.0654  0.9659  0.0716  -2.5625   0.0000   0.0000   0.0000   0.0575
  -5.000  -0.2890   0.03059   0.02235  -0.0690  0.9551  0.0749  -2.3675   0.0000   0.0000   0.0000   0.0021
  -4.500  -0.2215   0.02729   0.01824  -0.0718  0.9439  0.0774  -2.1948   0.0000   0.0000   0.0000  -0.0850
  -4.000  -0.1537   0.02505   0.01573  -0.0746  0.9326  0.0831  -1.9925   0.0000   0.0000   0.0000  -0.2491
  -3.500  -0.0846   0.02332   0.01368  -0.0771  0.9211  0.0899  -1.8083   0.0000   0.0000   0.0000  -0.6824
  -3.000  -0.0170   0.02175   0.01226  -0.0796  0.9095  0.1037  -1.6193   0.0000   0.0000   0.0000  -4.5226
  -2.500   0.0497   0.02031   0.01106  -0.0818  0.8977  0.1407  -1.4415   0.0000   0.0000   0.0000   1.9204
  -2.000   0.1129   0.01894   0.01038  -0.0835  0.8850  0.2820  -1.2662   0.0000   0.0000   0.0000   0.9981
  -1.500   0.1695   0.01730   0.01012  -0.0833  0.8717  0.6019  -1.0752   0.0000   0.0000   0.0000   0.7452
  -1.000   0.2935   0.01602   0.00939  -0.0933  0.8612  1.0000  -0.7682   0.0000   0.0000   0.0000   0.5690
  -0.500   0.3518   0.01562   0.00861  -0.0929  0.8401  1.0000  -0.6834   0.0000   0.0000   0.0000   0.5138
   0.000   0.4055   0.01547   0.00817  -0.0918  0.8207  1.0000  -0.7335   0.0000   0.0000   0.0000   0.4754
   0.500   0.4563   0.01545   0.00793  -0.0903  0.8004  1.0000  -0.7821   0.0000   0.0000   0.0000   0.4462
   1.000   0.5113   0.01534   0.00760  -0.0893  0.7813  1.0000  -0.8355   0.0000   0.0000   0.0000   0.4224
   1.500   0.5612   0.01540   0.00751  -0.0876  0.7584  1.0000  -0.8865   0.0000   0.0000   0.0000   0.4032
   2.000   0.6123   0.01545   0.00743  -0.0860  0.7348  1.0000  -0.9397   0.0000   0.0000   0.0000   0.3870
   2.500   0.6636   0.01553   0.00739  -0.0844  0.7095  1.0000  -0.9948   0.0000   0.0000   0.0000   0.3733
   3.000   0.7151   0.01563   0.00738  -0.0829  0.6821  1.0000  -1.0536   0.0000   0.0000   0.0000   0.3614
   3.500   0.7642   0.01584   0.00751  -0.0810  0.6507  1.0000  -1.1318   0.0000   0.0000   0.0000   0.3511
   4.000   0.8140   0.01608   0.00763  -0.0792  0.6169  1.0000  -1.2430   0.0000   0.0000   0.0000   0.3419
   4.500   0.8623   0.01646   0.00789  -0.0773  0.5797  1.0000  -1.3583   0.0000   0.0000   0.0000   0.3337
   5.000   0.9098   0.01700   0.00830  -0.0754  0.5417  1.0000  -1.4803   0.0000   0.0000   0.0000   0.3263
   5.500   0.9571   0.01768   0.00885  -0.0736  0.5066  1.0000  -1.6063   0.0000   0.0000   0.0000   0.3198
   6.000   1.0029   0.01848   0.00959  -0.0717  0.4736  1.0000  -1.7390   0.0000   0.0000   0.0000   0.3139
   6.500   1.0473   0.01929   0.01029  -0.0697  0.4416  1.0000  -1.8740   0.0000   0.0000   0.0000   0.3082
   7.000   1.0898   0.02014   0.01112  -0.0674  0.4105  1.0000  -2.0087   0.0000   0.0000   0.0000   0.3029
   7.500   1.1332   0.02111   0.01210  -0.0654  0.3851  1.0000  -2.2217   0.0000   0.0000   0.0000   0.2982
   8.000   1.1753   0.02216   0.01320  -0.0632  0.3605  1.0000  -2.5391   0.0000   0.0000   0.0000   0.2936
   8.500   1.2150   0.02328   0.01442  -0.0608  0.3353  1.0000  -2.8685   0.0000   0.0000   0.0000   0.2892
   9.000   1.2511   0.02449   0.01574  -0.0579  0.3088  1.0000  -3.2100   0.0000   0.0000   0.0000   0.2847
   9.500   1.2800   0.02576   0.01721  -0.0539  0.2785  1.0000  -3.5324   0.0000   0.0000   0.0000   0.2798
  10.000   1.2994   0.02712   0.01871  -0.0487  0.2439  1.0000  -3.8257   0.0000   0.0000   0.0000   0.2744
  10.500   1.3106   0.02887   0.02049  -0.0428  0.2090  1.0000  -4.1047   0.0000   0.0000   0.0000   0.2688
  11.000   1.3210   0.03124   0.02284  -0.0378  0.1801  1.0000  -4.3826   0.0000   0.0000   0.0000   0.2640
  11.500   1.3315   0.03407   0.02570  -0.0336  0.1585  1.0000  -4.6599   0.0000   0.0000   0.0000   0.2597
  12.000   1.3403   0.03729   0.02902  -0.0300  0.1406  1.0000  -4.9287   0.0000   0.0000   0.0000   0.2560
  12.500   1.3438   0.04112   0.03298  -0.0269  0.1237  1.0000  -5.1710   0.0000   0.0000   0.0000   0.2528
  13.000   1.3447   0.04561   0.03772  -0.0247  0.1066  1.0000  -5.3883   0.0000   0.0000   0.0000   0.2501
  13.500   1.3362   0.05146   0.04374  -0.0233  0.0904  1.0000  -5.5423   0.0000   0.0000   0.0000   0.2482
  14.000   1.3187   0.05901   0.05149  -0.0231  0.0731  1.0000  -5.6241   0.0000   0.0000   0.0000   0.2472
  14.500   1.2968   0.06794   0.06064  -0.0240  0.0584  1.0000  -5.6644   0.0000   0.0000   0.0000   0.2472
  15.000   1.2743   0.07767   0.07051  -0.0261  0.0502  1.0000  -5.6916   0.0000   0.0000   0.0000   0.2481


