xflr5 v6.61

 Calculated polar for: CLARK Y AIRFOIL

 1 1 Reynolds number fixed          Mach number fixed         

 xtrf =   1.000 (top)        1.000 (bottom)
 Mach =   0.000     Re =     0.300 e 6     Ncrit =   7.000

  alpha     CL        CD       CDp       Cm    Top Xtr Bot Xtr   Cpmin    Chinge    XCp    
 ------- -------- --------- --------- -------- ------- ------- -------- --------- ---------
 -15.000  -0.3288   0.15978   0.15675  -0.0289  1.0000  0.0279  -1.6644   0.0000   0.0000   0.0000   0.1475
 -14.500  -0.3168   0.15446   0.15144  -0.0293  1.0000  0.0284  -1.5863   0.0000   0.0000   0.0000   0.1427
 -14.000  -0.3083   0.15006   0.14703  -0.0302  1.0000  0.0297  -1.5179   0.0000   0.0000   0.0000   0.1375
 -13.500  -0.3191   0.14368   0.14065  -0.0338  1.0000  0.0326  -1.7408   0.0000   0.0000   0.0000   0.1295
 -13.000  -0.3147   0.13692   0.13391  -0.0350  1.0000  0.0332  -1.7518   0.0000   0.0000   0.0000   0.1243
 -12.500  -0.3014   0.13200   0.12899  -0.0352  1.0000  0.0345  -1.6197   0.0000   0.0000   0.0000   0.1189
 -12.000  -0.3182   0.12330   0.12032  -0.0402  1.0000  0.0381  -1.9069   0.0000   0.0000   0.0000   0.1098
 -11.500  -0.3079   0.11681   0.11385  -0.0402  1.0000  0.0390  -1.8207   0.0000   0.0000   0.0000   0.1061
  -8.500  -0.5213   0.03620   0.03211  -0.0816  0.9780  0.0344  -4.3482   0.0000   0.0000   0.0000   0.0831
  -8.000  -0.4756   0.02957   0.02466  -0.0854  0.9684  0.0363  -4.1328   0.0000   0.0000   0.0000   0.0598
  -7.500  -0.4234   0.02470   0.01880  -0.0876  0.9590  0.0380  -3.8908   0.0000   0.0000   0.0000   0.0322
  -7.000  -0.3666   0.02127   0.01496  -0.0893  0.9503  0.0394  -3.5630   0.0000   0.0000   0.0000  -0.0050
  -6.500  -0.3064   0.01924   0.01268  -0.0908  0.9414  0.0409  -3.2183   0.0000   0.0000   0.0000  -0.0584
  -6.000  -0.2494   0.01750   0.01065  -0.0911  0.9304  0.0426  -2.9213   0.0000   0.0000   0.0000  -0.1287
  -5.500  -0.1954   0.01604   0.00895  -0.0907  0.9172  0.0439  -2.6703   0.0000   0.0000   0.0000  -0.2291
  -5.000  -0.1431   0.01464   0.00746  -0.0899  0.9030  0.0458  -2.4409   0.0000   0.0000   0.0000  -0.3963
  -4.500  -0.0903   0.01370   0.00646  -0.0892  0.8882  0.0482  -2.1986   0.0000   0.0000   0.0000  -0.7631
  -4.000  -0.0370   0.01289   0.00555  -0.0884  0.8732  0.0509  -1.9881   0.0000   0.0000   0.0000  -2.1897
  -3.500   0.0162   0.01214   0.00476  -0.0877  0.8577  0.0553  -1.7769   0.0000   0.0000   0.0000   5.7770
  -3.000   0.0693   0.01157   0.00413  -0.0869  0.8390  0.0630  -1.5704   0.0000   0.0000   0.0000   1.5222
  -2.500   0.1228   0.01100   0.00358  -0.0861  0.8201  0.0893  -1.3745   0.0000   0.0000   0.0000   0.9596
  -2.000   0.1752   0.01039   0.00321  -0.0854  0.8003  0.1634  -1.1880   0.0000   0.0000   0.0000   0.7416
  -1.500   0.2280   0.00991   0.00298  -0.0847  0.7800  0.2676  -0.9968   0.0000   0.0000   0.0000   0.6236
  -1.000   0.2797   0.00939   0.00283  -0.0840  0.7591  0.3964  -0.8115   0.0000   0.0000   0.0000   0.5506
  -0.500   0.3259   0.00851   0.00280  -0.0819  0.7409  0.6619  -0.6825   0.0000   0.0000   0.0000   0.5008
   0.000   0.3830   0.00804   0.00296  -0.0807  0.7214  0.9318  -0.7359   0.0000   0.0000   0.0000   0.4592
   0.500   0.4813   0.00813   0.00288  -0.0893  0.7004  0.9968  -0.8134   0.0000   0.0000   0.0000   0.4336
   1.000   0.5369   0.00826   0.00282  -0.0893  0.6779  1.0000  -0.8676   0.0000   0.0000   0.0000   0.4137
   1.500   0.5860   0.00843   0.00283  -0.0879  0.6546  1.0000  -0.9190   0.0000   0.0000   0.0000   0.3968
   2.000   0.6346   0.00864   0.00289  -0.0863  0.6285  1.0000  -0.9709   0.0000   0.0000   0.0000   0.3823
   2.500   0.6828   0.00888   0.00299  -0.0846  0.5997  1.0000  -1.0247   0.0000   0.0000   0.0000   0.3698
   3.000   0.7305   0.00920   0.00314  -0.0829  0.5682  1.0000  -1.0798   0.0000   0.0000   0.0000   0.3588
   3.500   0.7777   0.00957   0.00335  -0.0811  0.5318  1.0000  -1.1604   0.0000   0.0000   0.0000   0.3491
   4.000   0.8242   0.01004   0.00364  -0.0792  0.4908  1.0000  -1.2714   0.0000   0.0000   0.0000   0.3405
   4.500   0.8695   0.01061   0.00401  -0.0773  0.4460  1.0000  -1.3852   0.0000   0.0000   0.0000   0.3327
   5.000   0.9140   0.01128   0.00445  -0.0752  0.4011  1.0000  -1.5073   0.0000   0.0000   0.0000   0.3256
   5.500   0.9588   0.01199   0.00497  -0.0734  0.3669  1.0000  -1.6370   0.0000   0.0000   0.0000   0.3193
   6.000   1.0050   0.01265   0.00554  -0.0718  0.3450  1.0000  -1.7747   0.0000   0.0000   0.0000   0.3136
   6.500   1.0523   0.01324   0.00613  -0.0704  0.3271  1.0000  -1.9167   0.0000   0.0000   0.0000   0.3085
   7.000   1.0988   0.01388   0.00677  -0.0690  0.3108  1.0000  -2.0630   0.0000   0.0000   0.0000   0.3038
   7.500   1.1445   0.01451   0.00744  -0.0674  0.2927  1.0000  -2.3242   0.0000   0.0000   0.0000   0.2993
   8.000   1.1885   0.01517   0.00812  -0.0657  0.2685  1.0000  -2.6584   0.0000   0.0000   0.0000   0.2949
   8.500   1.2297   0.01594   0.00885  -0.0635  0.2346  1.0000  -3.0188   0.0000   0.0000   0.0000   0.2906
   9.000   1.2647   0.01706   0.00981  -0.0605  0.1861  1.0000  -3.3686   0.0000   0.0000   0.0000   0.2861
   9.500   1.2895   0.01866   0.01118  -0.0561  0.1424  1.0000  -3.6878   0.0000   0.0000   0.0000   0.2811
  10.000   1.3155   0.02027   0.01271  -0.0521  0.1155  1.0000  -4.0397   0.0000   0.0000   0.0000   0.2765
  10.500   1.3414   0.02194   0.01437  -0.0485  0.0968  1.0000  -4.3985   0.0000   0.0000   0.0000   0.2722
  11.000   1.3654   0.02380   0.01624  -0.0449  0.0812  1.0000  -4.7517   0.0000   0.0000   0.0000   0.2682
  11.500   1.3866   0.02596   0.01837  -0.0415  0.0582  1.0000  -5.0862   0.0000   0.0000   0.0000   0.2644
  12.000   1.3880   0.02978   0.02195  -0.0369  0.0250  1.0000  -5.3167   0.0000   0.0000   0.0000   0.2602
  12.500   1.3942   0.03355   0.02584  -0.0335  0.0203  1.0000  -5.5783   0.0000   0.0000   0.0000   0.2567
  13.000   1.3992   0.03773   0.03024  -0.0309  0.0184  1.0000  -5.8467   0.0000   0.0000   0.0000   0.2538
  13.500   1.4002   0.04262   0.03537  -0.0289  0.0170  1.0000  -6.0960   0.0000   0.0000   0.0000   0.2514
  14.000   1.3905   0.04904   0.04202  -0.0277  0.0161  1.0000  -6.2754   0.0000   0.0000   0.0000   0.2496
  14.500   1.3843   0.05560   0.04885  -0.0275  0.0154  1.0000  -6.4678   0.0000   0.0000   0.0000   0.2485
  15.000   1.3721   0.06344   0.05693  -0.0283  0.0149  1.0000  -6.6143   0.0000   0.0000   0.0000   0.2482


