xflr5 v6.61

 Calculated polar for: E63  (4.25%)

 1 1 Reynolds number fixed          Mach number fixed         

 xtrf =   1.000 (top)        1.000 (bottom)
 Mach =   0.000     Re =     3.000 e 6     Ncrit =   6.000

  alpha     CL        CD       CDp       Cm    Top Xtr Bot Xtr   Cpmin    Chinge    XCp    
 ------- -------- --------- --------- -------- ------- ------- -------- --------- ---------
 -15.000  -0.4520   0.17603   0.17494  -0.0226  0.9950  0.0011  -1.6600   0.0000   0.0000   0.0000   0.1953
 -14.500  -0.4346   0.16985   0.16876  -0.0258  0.9947  0.0011  -1.6494   0.0000   0.0000   0.0000   0.1860
 -14.000  -0.4169   0.16357   0.16248  -0.0291  0.9944  0.0011  -1.6325   0.0000   0.0000   0.0000   0.1755
 -13.500  -0.3997   0.15734   0.15625  -0.0322  0.9941  0.0011  -1.6140   0.0000   0.0000   0.0000   0.1647
 -13.000  -0.3824   0.15100   0.14992  -0.0353  0.9938  0.0011  -1.6532   0.0000   0.0000   0.0000   0.1527
 -12.500  -0.3654   0.14473   0.14365  -0.0386  0.9935  0.0012  -1.6014   0.0000   0.0000   0.0000   0.1395
 -12.000  -0.3477   0.13869   0.13761  -0.0418  0.9933  0.0012  -1.5406   0.0000   0.0000   0.0000   0.1248
 -11.500  -0.3293   0.13255   0.13147  -0.0452  0.9931  0.0013  -1.4989   0.0000   0.0000   0.0000   0.1077
 -11.000  -0.3101   0.12633   0.12525  -0.0487  0.9928  0.0014  -1.4771   0.0000   0.0000   0.0000   0.0875
 -10.500  -0.2987   0.12080   0.11972  -0.0497  0.9911  0.0016  -1.4875   0.0000   0.0000   0.0000   0.0785
 -10.000  -0.2813   0.11455   0.11349  -0.0523  0.9900  0.0018  -1.6262   0.0000   0.0000   0.0000   0.0584
  -9.500  -0.2616   0.10827   0.10721  -0.0559  0.9891  0.0019  -1.6927   0.0000   0.0000   0.0000   0.0304
  -9.000  -0.2398   0.10203   0.10097  -0.0600  0.9884  0.0019  -1.6897   0.0000   0.0000   0.0000  -0.0065
  -3.000   0.4686   0.00615   0.00303  -0.1973  0.9474  0.0025  -4.2279   0.0000   0.0000   0.0000   0.6739
  -2.500   0.5635   0.00504   0.00165  -0.2065  0.9348  0.0030  -3.1410   0.0000   0.0000   0.0000   0.6188
  -2.000   0.6314   0.00462   0.00091  -0.2094  0.8847  0.0036  -2.2161   0.0000   0.0000   0.0000   0.5833
  -1.500   0.6768   0.00484   0.00073  -0.2069  0.8070  0.0045  -1.5705   0.0000   0.0000   0.0000   0.5569
  -1.000   0.7251   0.00508   0.00061  -0.2052  0.7314  0.0061  -1.0466   0.0000   0.0000   0.0000   0.5337
  -0.500   0.7737   0.00552   0.00066  -0.2037  0.6411  0.0120  -0.5994   0.0000   0.0000   0.0000   0.5134
   0.000   0.8263   0.00571   0.00081  -0.2033  0.5619  0.1510  -0.6523   0.0000   0.0000   0.0000   0.4958
   0.500   0.8790   0.00597   0.00105  -0.2031  0.4810  0.3133  -0.7194   0.0000   0.0000   0.0000   0.4802
   1.000   0.9308   0.00637   0.00133  -0.2026  0.3968  0.4391  -0.8017   0.0000   0.0000   0.0000   0.4664
   1.500   0.9808   0.00703   0.00173  -0.2018  0.2781  0.5759  -0.9041   0.0000   0.0000   0.0000   0.4540
   2.000   1.0312   0.00775   0.00224  -0.2011  0.1601  0.7427  -1.0759   0.0000   0.0000   0.0000   0.4428
   2.500   1.0768   0.00814   0.00271  -0.1991  0.0800  1.0000  -1.4498   0.0000   0.0000   0.0000   0.4322
   3.000   1.1261   0.00897   0.00323  -0.1978  0.0163  1.0000  -1.8590   0.0000   0.0000   0.0000   0.4225
   3.500   1.1777   0.00944   0.00364  -0.1970  0.0066  1.0000  -2.2932   0.0000   0.0000   0.0000   0.4136
   4.000   1.2294   0.00986   0.00407  -0.1963  0.0059  1.0000  -2.8451   0.0000   0.0000   0.0000   0.4054
   4.500   1.2806   0.01034   0.00457  -0.1954  0.0055  1.0000  -3.4300   0.0000   0.0000   0.0000   0.3977
   5.000   1.3310   0.01089   0.00515  -0.1944  0.0052  1.0000  -4.0443   0.0000   0.0000   0.0000   0.3906
   5.500   1.3808   0.01151   0.00583  -0.1933  0.0049  1.0000  -4.6904   0.0000   0.0000   0.0000   0.3839
   6.000   1.4298   0.01221   0.00658  -0.1921  0.0045  1.0000  -5.8209   0.0000   0.0000   0.0000   0.3776
   6.500   1.4752   0.01348   0.00800  -0.1900  0.0038  1.0000  -6.9785   0.0000   0.0000   0.0000   0.3714
   7.000   1.5255   0.01382   0.00833  -0.1893  0.0036  1.0000  -8.4868   0.0000   0.0000   0.0000   0.3659
   7.500   1.5741   0.01437   0.00890  -0.1882  0.0031  1.0000  -10.1534   0.0000   0.0000   0.0000   0.3607
   8.000   1.6226   0.01487   0.00939  -0.1871  0.0026  1.0000  -11.9682   0.0000   0.0000   0.0000   0.3557
   8.500   1.6690   0.01563   0.01018  -0.1856  0.0021  1.0000  -13.8489   0.0000   0.0000   0.0000   0.3508
   9.000   1.7148   0.01640   0.01097  -0.1841  0.0013  1.0000  -15.8428   0.0000   0.0000   0.0000   0.3461
   9.500   1.7572   0.01763   0.01230  -0.1819  0.0005  1.0000  -17.8355   0.0000   0.0000   0.0000   0.3414
  10.000   1.7973   0.01911   0.01393  -0.1793  0.0003  1.0000  -19.8611   0.0000   0.0000   0.0000   0.3368
  10.500   1.8355   0.02071   0.01570  -0.1764  0.0002  1.0000  -21.9212   0.0000   0.0000   0.0000   0.3323
  11.000   1.8720   0.02237   0.01754  -0.1732  0.0002  1.0000  -24.0745   0.0000   0.0000   0.0000   0.3279
  11.500   1.9049   0.02427   0.01964  -0.1695  0.0001  1.0000  -26.2257   0.0000   0.0000   0.0000   0.3234
  12.000   1.9328   0.02647   0.02207  -0.1650  0.0001  1.0000  -28.3234   0.0000   0.0000   0.0000   0.3189
  12.500   1.9490   0.02899   0.02484  -0.1584  0.0001  1.0000  -30.1783   0.0000   0.0000   0.0000   0.3140
  13.000   1.9555   0.03193   0.02804  -0.1505  0.0001  1.0000  -31.7981   0.0000   0.0000   0.0000   0.3087
  13.500   1.9560   0.03561   0.03202  -0.1423  0.0000  1.0000  -33.2454   0.0000   0.0000   0.0000   0.3036
  14.000   1.9479   0.04033   0.03707  -0.1341  0.0000  1.0000  -34.4069   0.0000   0.0000   0.0000   0.2988
  14.500   1.9276   0.04668   0.04379  -0.1261  0.0000  1.0000  -35.1287   0.0000   0.0000   0.0000   0.2944
  15.000   1.9011   0.05441   0.05187  -0.1201  0.0000  1.0000  -35.6820   0.0000   0.0000   0.0000   0.2911


