xflr5 v6.61

 Calculated polar for: E63  (4.25%)

 1 1 Reynolds number fixed          Mach number fixed         

 xtrf =   1.000 (top)        1.000 (bottom)
 Mach =   0.000     Re =     0.200 e 6     Ncrit =   6.000

  alpha     CL        CD       CDp       Cm    Top Xtr Bot Xtr   Cpmin    Chinge    XCp    
 ------- -------- --------- --------- -------- ------- ------- -------- --------- ---------
 -15.000  -0.5026   0.18604   0.18204  -0.0061  1.0000  0.0079  -1.5179   0.0000   0.0000   0.0000   0.2343
 -14.500  -0.4899   0.18021   0.17623  -0.0075  1.0000  0.0082  -1.4519   0.0000   0.0000   0.0000   0.2311
 -14.000  -0.4774   0.17469   0.17072  -0.0091  1.0000  0.0085  -1.3979   0.0000   0.0000   0.0000   0.2277
 -13.500  -0.4651   0.16923   0.16529  -0.0105  1.0000  0.0090  -1.3510   0.0000   0.0000   0.0000   0.2242
 -13.000  -0.4530   0.16375   0.15983  -0.0119  1.0000  0.0094  -1.3460   0.0000   0.0000   0.0000   0.2206
 -12.500  -0.4415   0.15822   0.15432  -0.0132  1.0000  0.0098  -1.3576   0.0000   0.0000   0.0000   0.2172
 -12.000  -0.4304   0.15273   0.14886  -0.0143  1.0000  0.0102  -1.3722   0.0000   0.0000   0.0000   0.2139
 -11.500  -0.4198   0.14722   0.14339  -0.0153  1.0000  0.0107  -1.3881   0.0000   0.0000   0.0000   0.2108
 -11.000  -0.4097   0.14176   0.13797  -0.0162  1.0000  0.0111  -1.4051   0.0000   0.0000   0.0000   0.2079
 -10.500  -0.4003   0.13638   0.13262  -0.0169  1.0000  0.0116  -1.4256   0.0000   0.0000   0.0000   0.2053
 -10.000  -0.3913   0.13122   0.12751  -0.0175  1.0000  0.0120  -1.4569   0.0000   0.0000   0.0000   0.2028
  -9.500  -0.3836   0.12638   0.12270  -0.0181  1.0000  0.0123  -1.5017   0.0000   0.0000   0.0000   0.2004
  -9.000  -0.3779   0.12185   0.11824  -0.0186  1.0000  0.0124  -1.5507   0.0000   0.0000   0.0000   0.1986
  -8.500  -0.3746   0.11760   0.11406  -0.0187  1.0000  0.0125  -1.5988   0.0000   0.0000   0.0000   0.1981
  -8.000  -0.3744   0.11366   0.11019  -0.0182  1.0000  0.0125  -1.6462   0.0000   0.0000   0.0000   0.1997
  -7.500  -0.3789   0.11014   0.10677  -0.0166  1.0000  0.0126  -1.6943   0.0000   0.0000   0.0000   0.2046
  -7.000  -0.3888   0.10705   0.10379  -0.0138  1.0000  0.0126  -1.7472   0.0000   0.0000   0.0000   0.2130
  -6.500  -0.3812   0.09950   0.09629  -0.0101  1.0000  0.0132  -1.5627   0.0000   0.0000   0.0000   0.2220
  -6.000  -0.3672   0.09409   0.09093  -0.0125  0.9978  0.0142  -1.5121   0.0000   0.0000   0.0000   0.2145
  -5.500  -0.3214   0.08630   0.08312  -0.0238  0.9906  0.0159  -1.5066   0.0000   0.0000   0.0000   0.1742
  -5.000  -0.2614   0.07783   0.07462  -0.0398  0.9825  0.0174  -1.6280   0.0000   0.0000   0.0000   0.0952
  -4.500  -0.2002   0.06907   0.06583  -0.0542  0.9756  0.0181  -1.6454   0.0000   0.0000   0.0000  -0.0241
  -4.000  -0.1250   0.06037   0.05702  -0.0708  0.9694  0.0209  -1.6028   0.0000   0.0000   0.0000  -0.3220
  -3.500  -0.0354   0.05113   0.04764  -0.0895  0.9640  0.0235  -1.5454   0.0000   0.0000   0.0000  -2.3000
  -3.000   0.1084   0.03936   0.03529  -0.1192  0.9634  0.0299  -1.6897   0.0000   0.0000   0.0000   1.3556
  -2.500   0.1933   0.03261   0.02829  -0.1309  0.9606  0.0389  -1.3652   0.0000   0.0000   0.0000   0.9308
  -1.500   0.4194   0.01835   0.01160  -0.1563  0.9657  0.0167  -1.9743   0.0000   0.0000   0.0000   0.6240
  -1.000   0.5012   0.01610   0.00892  -0.1616  0.9635  0.0186  -1.6614   0.0000   0.0000   0.0000   0.5731
  -0.500   0.5766   0.01497   0.00767  -0.1658  0.9575  0.0280  -1.2531   0.0000   0.0000   0.0000   0.5378
   0.500   0.7133   0.01224   0.00687  -0.1712  0.9395  1.0000  -0.6018   0.0000   0.0000   0.0000   0.4893
   1.000   0.7811   0.01190   0.00640  -0.1734  0.9266  1.0000  -0.6754   0.0000   0.0000   0.0000   0.4708
   1.500   0.8470   0.01145   0.00591  -0.1749  0.9112  1.0000  -0.7642   0.0000   0.0000   0.0000   0.4549
   2.000   0.9116   0.01095   0.00546  -0.1760  0.8907  1.0000  -0.8773   0.0000   0.0000   0.0000   0.4410
   2.500   0.9849   0.01035   0.00495  -0.1789  0.8609  1.0000  -1.0636   0.0000   0.0000   0.0000   0.4290
   3.000   1.0786   0.00980   0.00441  -0.1860  0.8003  1.0000  -1.5949   0.0000   0.0000   0.0000   0.4194
   3.500   1.1456   0.01039   0.00456  -0.1875  0.6742  1.0000  -2.0870   0.0000   0.0000   0.0000   0.4100
   4.000   1.1742   0.01254   0.00550  -0.1814  0.4537  1.0000  -2.4433   0.0000   0.0000   0.0000   0.4002
   4.500   1.2058   0.01483   0.00680  -0.1770  0.2636  1.0000  -2.8749   0.0000   0.0000   0.0000   0.3920
   5.000   1.2408   0.01743   0.00844  -0.1738  0.0930  1.0000  -3.3095   0.0000   0.0000   0.0000   0.3847
   5.500   1.2789   0.01995   0.01059  -0.1706  0.0242  1.0000  -3.6689   0.0000   0.0000   0.0000   0.3774
   6.000   1.3201   0.02195   0.01286  -0.1676  0.0196  1.0000  -4.2034   0.0000   0.0000   0.0000   0.3704
   6.500   1.3567   0.02447   0.01563  -0.1640  0.0170  1.0000  -5.0181   0.0000   0.0000   0.0000   0.3637
   7.000   1.3931   0.02745   0.01891  -0.1603  0.0155  1.0000  -5.8258   0.0000   0.0000   0.0000   0.3572
   7.500   1.4328   0.03136   0.02315  -0.1571  0.0145  1.0000  -6.6363   0.0000   0.0000   0.0000   0.3512
   8.000   1.4730   0.03661   0.02896  -0.1543  0.0129  1.0000  -7.4067   0.0000   0.0000   0.0000   0.3456
   8.500   1.5030   0.04311   0.03655  -0.1492  0.0115  1.0000  -7.9203   0.0000   0.0000   0.0000   0.3395
   9.000   1.5145   0.05059   0.04498  -0.1423  0.0105  1.0000  -8.2771   0.0000   0.0000   0.0000   0.3336
  10.000   1.4728   0.06565   0.06140  -0.1236  0.0092  1.0000  -8.5350   0.0000   0.0000   0.0000   0.3224
  10.500   1.4328   0.07430   0.07069  -0.1156  0.0091  1.0000  -8.3404   0.0000   0.0000   0.0000   0.3185
  11.000   1.3916   0.08472   0.08160  -0.1130  0.0091  1.0000  -8.1468   0.0000   0.0000   0.0000   0.3182
  11.500   1.3531   0.09722   0.09446  -0.1165  0.0092  1.0000  -7.9525   0.0000   0.0000   0.0000   0.3223


