xflr5 v6.61

 Calculated polar for: E63  (4.25%)

 1 1 Reynolds number fixed          Mach number fixed         

 xtrf =   1.000 (top)        1.000 (bottom)
 Mach =   0.000     Re =     0.080 e 6     Ncrit =   6.000

  alpha     CL        CD       CDp       Cm    Top Xtr Bot Xtr   Cpmin    Chinge    XCp    
 ------- -------- --------- --------- -------- ------- ------- -------- --------- ---------
 -15.000  -0.4994   0.18808   0.18174  -0.0083  1.0000  0.0213  -1.3848   0.0000   0.0000   0.0000   0.2298
 -14.500  -0.4862   0.18236   0.17606  -0.0100  1.0000  0.0217  -1.3608   0.0000   0.0000   0.0000   0.2259
 -14.000  -0.4730   0.17664   0.17037  -0.0115  1.0000  0.0227  -1.3093   0.0000   0.0000   0.0000   0.2225
 -13.500  -0.4604   0.17126   0.16504  -0.0131  1.0000  0.0237  -1.3150   0.0000   0.0000   0.0000   0.2184
 -13.000  -0.4483   0.16623   0.16003  -0.0149  1.0000  0.0248  -1.3509   0.0000   0.0000   0.0000   0.2138
 -12.500  -0.4387   0.16213   0.15599  -0.0171  1.0000  0.0252  -1.4300   0.0000   0.0000   0.0000   0.2082
 -12.000  -0.4253   0.15503   0.14893  -0.0172  1.0000  0.0265  -1.3493   0.0000   0.0000   0.0000   0.2067
 -11.500  -0.4144   0.14971   0.14366  -0.0183  1.0000  0.0280  -1.3481   0.0000   0.0000   0.0000   0.2032
 -11.000  -0.4050   0.14506   0.13908  -0.0197  1.0000  0.0292  -1.3868   0.0000   0.0000   0.0000   0.1987
 -10.500  -0.3999   0.14176   0.13587  -0.0216  1.0000  0.0297  -1.4705   0.0000   0.0000   0.0000   0.1935
 -10.000  -0.3867   0.13387   0.12803  -0.0208  1.0000  0.0309  -1.3746   0.0000   0.0000   0.0000   0.1938
  -9.500  -0.3780   0.12848   0.12269  -0.0209  1.0000  0.0325  -1.3438   0.0000   0.0000   0.0000   0.1923
  -9.000  -0.3711   0.12355   0.11784  -0.0211  1.0000  0.0343  -1.3415   0.0000   0.0000   0.0000   0.1908
  -8.500  -0.3672   0.11942   0.11382  -0.0215  1.0000  0.0356  -1.3765   0.0000   0.0000   0.0000   0.1893
  -8.000  -0.3691   0.11628   0.11082  -0.0217  1.0000  0.0360  -1.4440   0.0000   0.0000   0.0000   0.1895
  -7.500  -0.3604   0.10961   0.10423  -0.0196  1.0000  0.0376  -1.3802   0.0000   0.0000   0.0000   0.1937
  -7.000  -0.3616   0.10547   0.10022  -0.0176  1.0000  0.0395  -1.3930   0.0000   0.0000   0.0000   0.1995
  -6.500  -0.3678   0.10211   0.09701  -0.0157  1.0000  0.0411  -1.4449   0.0000   0.0000   0.0000   0.2060
  -6.000  -0.3643   0.09839   0.09344  -0.0189  1.0000  0.0420  -1.5590   0.0000   0.0000   0.0000   0.1966
  -5.500  -0.3559   0.09212   0.08724  -0.0165  1.0000  0.0448  -1.4758   0.0000   0.0000   0.0000   0.2023
  -5.000  -0.3291   0.08706   0.08225  -0.0274  1.0000  0.0478  -1.6093   0.0000   0.0000   0.0000   0.1654
  -4.500  -0.3168   0.08065   0.07592  -0.0249  1.0000  0.0521  -1.4972   0.0000   0.0000   0.0000   0.1700
  -4.000  -0.2799   0.07389   0.06918  -0.0330  1.0000  0.0566  -1.4986   0.0000   0.0000   0.0000   0.1302
  -3.500  -0.2273   0.06655   0.06180  -0.0441  1.0000  0.0633  -1.4734   0.0000   0.0000   0.0000   0.0537
  -3.000  -0.1447   0.05817   0.05320  -0.0619  1.0000  0.0751  -1.4381   0.0000   0.0000   0.0000  -0.1813
  -2.500  -0.0648   0.05058   0.04541  -0.0754  1.0000  0.0911  -1.3055   0.0000   0.0000   0.0000  -0.9214
  -1.500   0.2188   0.03055   0.02325  -0.1205  1.0000  0.0397  -1.6988   0.0000   0.0000   0.0000   0.8026
  -1.000   0.3249   0.02568   0.01683  -0.1306  1.0000  0.0360  -1.7747   0.0000   0.0000   0.0000   0.6528
  -0.500   0.4006   0.02337   0.01403  -0.1348  1.0000  0.0405  -1.5439   0.0000   0.0000   0.0000   0.5867
   0.000   0.4723   0.02226   0.01268  -0.1383  1.0000  0.0625  -1.3172   0.0000   0.0000   0.0000   0.5426
   0.500   0.5460   0.02016   0.01240  -0.1423  0.9952  1.0000  -1.0012   0.0000   0.0000   0.0000   0.5100
   1.000   0.6250   0.02099   0.01269  -0.1478  0.9799  1.0000  -0.5621   0.0000   0.0000   0.0000   0.4853
   1.500   0.7022   0.02146   0.01292  -0.1527  0.9624  1.0000  -0.6387   0.0000   0.0000   0.0000   0.4659
   2.000   0.7765   0.02160   0.01302  -0.1567  0.9418  1.0000  -0.7302   0.0000   0.0000   0.0000   0.4497
   2.500   0.8498   0.02144   0.01297  -0.1600  0.9187  1.0000  -0.8470   0.0000   0.0000   0.0000   0.4357
   3.000   0.9247   0.02087   0.01266  -0.1629  0.8934  1.0000  -1.0242   0.0000   0.0000   0.0000   0.4231
   3.500   0.9963   0.01993   0.01210  -0.1643  0.8622  1.0000  -1.4040   0.0000   0.0000   0.0000   0.4114
   4.000   1.0683   0.01877   0.01141  -0.1651  0.8189  1.0000  -1.8979   0.0000   0.0000   0.0000   0.4005
   4.500   1.1535   0.01756   0.01062  -0.1679  0.7367  1.0000  -2.4814   0.0000   0.0000   0.0000   0.3909
   5.000   1.2257   0.01808   0.01073  -0.1683  0.5478  1.0000  -3.1125   0.0000   0.0000   0.0000   0.3820
   5.500   1.2490   0.02178   0.01251  -0.1620  0.2473  1.0000  -3.4969   0.0000   0.0000   0.0000   0.3738
   6.000   1.2748   0.02668   0.01600  -0.1572  0.0607  1.0000  -3.7549   0.0000   0.0000   0.0000   0.3668
   6.500   1.3060   0.03042   0.01982  -0.1526  0.0405  1.0000  -4.1938   0.0000   0.0000   0.0000   0.3597
   7.000   1.3396   0.03444   0.02418  -0.1483  0.0344  1.0000  -4.8325   0.0000   0.0000   0.0000   0.3530
   7.500   1.3889   0.04001   0.03025  -0.1462  0.0314  1.0000  -5.4934   0.0000   0.0000   0.0000   0.3469
   8.000   1.4327   0.04643   0.03718  -0.1442  0.0275  1.0000  -6.1673   0.0000   0.0000   0.0000   0.3417
   8.500   1.4607   0.05477   0.04681  -0.1389  0.0269  1.0000  -6.4165   0.0000   0.0000   0.0000   0.3355
   9.000   1.4637   0.06375   0.05708  -0.1313  0.0263  1.0000  -6.4467   0.0000   0.0000   0.0000   0.3296
   9.500   1.4448   0.07261   0.06697  -0.1228  0.0256  1.0000  -6.3603   0.0000   0.0000   0.0000   0.3244
  10.000   1.4093   0.08071   0.07572  -0.1142  0.0256  1.0000  -6.2342   0.0000   0.0000   0.0000   0.3199
  10.500   1.3682   0.08980   0.08533  -0.1092  0.0259  1.0000  -6.0752   0.0000   0.0000   0.0000   0.3181
  11.000   1.3276   0.10079   0.09672  -0.1099  0.0263  1.0000  -5.8852   0.0000   0.0000   0.0000   0.3204
  11.500   1.2930   0.11399   0.11020  -0.1166  0.0269  1.0000  -5.6710   0.0000   0.0000   0.0000   0.3271
  12.000   1.2702   0.12870   0.12498  -0.1267  0.0274  1.0000  -5.4510   0.0000   0.0000   0.0000   0.3360
  12.500   1.2419   0.15619   0.15245  -0.1483  0.0326  1.0000  -4.3060   0.0000   0.0000   0.0000   0.3556
  13.000   1.2435   0.16807   0.16429  -0.1550  0.0334  1.0000  -4.1778   0.0000   0.0000   0.0000   0.3603


