xflr5 v6.61

 Calculated polar for: E63  (4.25%)

 1 1 Reynolds number fixed          Mach number fixed         

 xtrf =   1.000 (top)        1.000 (bottom)
 Mach =   0.000     Re =     0.060 e 6     Ncrit =   6.000

  alpha     CL        CD       CDp       Cm    Top Xtr Bot Xtr   Cpmin    Chinge    XCp    
 ------- -------- --------- --------- -------- ------- ------- -------- --------- ---------
 -15.000  -0.5008   0.19037   0.18308  -0.0094  1.0000  0.0296  -1.3887   0.0000   0.0000   0.0000   0.2277
 -14.500  -0.4866   0.18356   0.17632  -0.0107  1.0000  0.0305  -1.3367   0.0000   0.0000   0.0000   0.2246
 -14.000  -0.4731   0.17773   0.17052  -0.0121  1.0000  0.0322  -1.2928   0.0000   0.0000   0.0000   0.2212
 -13.500  -0.4604   0.17244   0.16527  -0.0137  1.0000  0.0340  -1.2989   0.0000   0.0000   0.0000   0.2171
 -13.000  -0.4488   0.16763   0.16049  -0.0156  1.0000  0.0355  -1.3292   0.0000   0.0000   0.0000   0.2123
 -12.500  -0.4393   0.16351   0.15644  -0.0177  1.0000  0.0360  -1.3845   0.0000   0.0000   0.0000   0.2070
 -12.000  -0.4258   0.15654   0.14952  -0.0181  1.0000  0.0373  -1.3384   0.0000   0.0000   0.0000   0.2047
 -11.500  -0.4145   0.15099   0.14403  -0.0190  1.0000  0.0393  -1.3231   0.0000   0.0000   0.0000   0.2015
 -11.000  -0.4051   0.14614   0.13925  -0.0202  1.0000  0.0412  -1.3420   0.0000   0.0000   0.0000   0.1975
 -10.500  -0.3990   0.14232   0.13553  -0.0219  1.0000  0.0420  -1.3978   0.0000   0.0000   0.0000   0.1927
 -10.000  -0.3865   0.13525   0.12852  -0.0215  1.0000  0.0440  -1.3296   0.0000   0.0000   0.0000   0.1921
  -9.500  -0.3788   0.13034   0.12368  -0.0220  1.0000  0.0465  -1.3287   0.0000   0.0000   0.0000   0.1897
  -9.000  -0.3770   0.12707   0.12054  -0.0231  1.0000  0.0477  -1.3877   0.0000   0.0000   0.0000   0.1866
  -8.500  -0.3659   0.12023   0.11378  -0.0219  1.0000  0.0505  -1.3093   0.0000   0.0000   0.0000   0.1879
  -8.000  -0.3637   0.11620   0.10989  -0.0217  1.0000  0.0535  -1.3438   0.0000   0.0000   0.0000   0.1883
  -7.500  -0.3726   0.11412   0.10799  -0.0211  1.0000  0.0544  -1.4393   0.0000   0.0000   0.0000   0.1916
  -7.000  -0.3625   0.10721   0.10117  -0.0186  1.0000  0.0585  -1.3713   0.0000   0.0000   0.0000   0.1970
  -6.500  -0.3681   0.10416   0.09831  -0.0182  1.0000  0.0609  -1.4397   0.0000   0.0000   0.0000   0.1992
  -6.000  -0.3612   0.09847   0.09275  -0.0171  1.0000  0.0638  -1.4219   0.0000   0.0000   0.0000   0.2011
  -5.500  -0.3502   0.09402   0.08840  -0.0219  1.0000  0.0676  -1.4888   0.0000   0.0000   0.0000   0.1861
  -5.000  -0.3365   0.08790   0.08237  -0.0219  1.0000  0.0724  -1.4489   0.0000   0.0000   0.0000   0.1833
  -4.500  -0.3133   0.08185   0.07640  -0.0266  1.0000  0.0778  -1.4459   0.0000   0.0000   0.0000   0.1637
  -4.000  -0.2786   0.07535   0.06993  -0.0338  1.0000  0.0858  -1.4313   0.0000   0.0000   0.0000   0.1270
  -3.500  -0.2261   0.06808   0.06261  -0.0452  1.0000  0.0970  -1.4080   0.0000   0.0000   0.0000   0.0477
  -1.500   0.2224   0.03192   0.02344  -0.1214  1.0000  0.0478  -1.7338   0.0000   0.0000   0.0000   0.7974
  -1.000   0.3161   0.02760   0.01796  -0.1296  1.0000  0.0473  -1.6773   0.0000   0.0000   0.0000   0.6608
  -0.500   0.3917   0.02521   0.01493  -0.1336  1.0000  0.0557  -1.4745   0.0000   0.0000   0.0000   0.5913
   0.000   0.4617   0.02387   0.01327  -0.1364  1.0000  0.0928  -1.3139   0.0000   0.0000   0.0000   0.5453
   0.500   0.5226   0.02172   0.01285  -0.1379  1.0000  1.0000  -1.0756   0.0000   0.0000   0.0000   0.5132
   1.000   0.5691   0.02289   0.01349  -0.1375  1.0000  1.0000  -0.6353   0.0000   0.0000   0.0000   0.4905
   1.500   0.6269   0.02427   0.01455  -0.1396  0.9931  1.0000  -0.5831   0.0000   0.0000   0.0000   0.4711
   2.000   0.7073   0.02532   0.01545  -0.1458  0.9710  1.0000  -0.6679   0.0000   0.0000   0.0000   0.4541
   2.500   0.7861   0.02584   0.01602  -0.1511  0.9464  1.0000  -0.7742   0.0000   0.0000   0.0000   0.4396
   3.000   0.8640   0.02590   0.01630  -0.1555  0.9188  1.0000  -0.9153   0.0000   0.0000   0.0000   0.4269
   3.500   0.9434   0.02538   0.01618  -0.1591  0.8880  1.0000  -1.1691   0.0000   0.0000   0.0000   0.4151
   4.000   1.0189   0.02428   0.01564  -0.1608  0.8501  1.0000  -1.6534   0.0000   0.0000   0.0000   0.4038
   4.500   1.0941   0.02267   0.01471  -0.1611  0.7990  1.0000  -2.1785   0.0000   0.0000   0.0000   0.3927
   5.000   1.1780   0.02107   0.01369  -0.1619  0.6985  1.0000  -2.8081   0.0000   0.0000   0.0000   0.3823
   5.500   1.2364   0.02209   0.01405  -0.1588  0.4755  1.0000  -3.3729   0.0000   0.0000   0.0000   0.3726
   6.000   1.2534   0.02692   0.01669  -0.1523  0.1639  1.0000  -3.6796   0.0000   0.0000   0.0000   0.3651
   6.500   1.2824   0.03249   0.02142  -0.1477  0.0614  1.0000  -3.9360   0.0000   0.0000   0.0000   0.3582
   7.000   1.3180   0.03694   0.02616  -0.1437  0.0475  1.0000  -4.4779   0.0000   0.0000   0.0000   0.3514
   7.500   1.3671   0.04241   0.03192  -0.1419  0.0402  1.0000  -5.1713   0.0000   0.0000   0.0000   0.3455
   8.000   1.4186   0.05012   0.04071  -0.1397  0.0376  1.0000  -5.6550   0.0000   0.0000   0.0000   0.3396
   8.500   1.4477   0.05766   0.04899  -0.1359  0.0338  1.0000  -6.1189   0.0000   0.0000   0.0000   0.3344
   9.000   1.4559   0.06696   0.05948  -0.1294  0.0334  1.0000  -6.2172   0.0000   0.0000   0.0000   0.3288
   9.500   1.4467   0.07638   0.06984  -0.1223  0.0336  1.0000  -6.2092   0.0000   0.0000   0.0000   0.3240
  10.000   1.4051   0.08475   0.07920  -0.1131  0.0344  1.0000  -5.9437   0.0000   0.0000   0.0000   0.3195
  10.500   1.3548   0.09421   0.08921  -0.1080  0.0352  1.0000  -5.6605   0.0000   0.0000   0.0000   0.3181
  11.000   1.3065   0.10631   0.10175  -0.1103  0.0360  1.0000  -5.3531   0.0000   0.0000   0.0000   0.3222
  11.500   1.2653   0.12227   0.11795  -0.1210  0.0370  1.0000  -4.9575   0.0000   0.0000   0.0000   0.3328
  12.000   1.2426   0.14080   0.13650  -0.1351  0.0385  1.0000  -4.5102   0.0000   0.0000   0.0000   0.3455
  12.500   1.2395   0.15479   0.15045  -0.1436  0.0397  1.0000  -4.3065   0.0000   0.0000   0.0000   0.3521


