xflr5 v6.61

 Calculated polar for: E63  (4.25%)

 1 1 Reynolds number fixed          Mach number fixed         

 xtrf =   1.000 (top)        1.000 (bottom)
 Mach =   0.000     Re =     0.100 e 6     Ncrit =   6.000

  alpha     CL        CD       CDp       Cm    Top Xtr Bot Xtr   Cpmin    Chinge    XCp    
 ------- -------- --------- --------- -------- ------- ------- -------- --------- ---------
 -15.000  -0.4996   0.18713   0.18145  -0.0075  1.0000  0.0173  -1.3727   0.0000   0.0000   0.0000   0.2314
 -14.500  -0.4864   0.18208   0.17643  -0.0097  1.0000  0.0175  -1.3873   0.0000   0.0000   0.0000   0.2267
 -14.000  -0.4741   0.17720   0.17158  -0.0118  1.0000  0.0176  -1.4072   0.0000   0.0000   0.0000   0.2219
 -13.500  -0.4611   0.17063   0.16506  -0.0127  1.0000  0.0181  -1.3504   0.0000   0.0000   0.0000   0.2194
  -6.000  -0.3675   0.09641   0.09196  -0.0135  1.0000  0.0321  -1.4712   0.0000   0.0000   0.0000   0.2119
  -5.500  -0.3600   0.09150   0.08713  -0.0146  1.0000  0.0340  -1.4920   0.0000   0.0000   0.0000   0.2081
  -5.000  -0.3387   0.08618   0.08188  -0.0220  1.0000  0.0359  -1.6011   0.0000   0.0000   0.0000   0.1837
  -4.500  -0.3192   0.07973   0.07550  -0.0243  1.0000  0.0372  -1.5663   0.0000   0.0000   0.0000   0.1723
  -4.000  -0.2676   0.07262   0.06835  -0.0378  1.0000  0.0418  -1.6237   0.0000   0.0000   0.0000   0.1067
  -3.000  -0.1238   0.05595   0.05144  -0.0660  0.9950  0.0561  -1.4574   0.0000   0.0000   0.0000  -0.2871
  -2.500  -0.0113   0.04696   0.04212  -0.0873  0.9919  0.0711  -1.3201   0.0000   0.0000   0.0000  -7.5282
  -1.500   0.2561   0.02816   0.02120  -0.1274  0.9940  0.0336  -1.7282   0.0000   0.0000   0.0000   0.7492
  -1.000   0.3579   0.02365   0.01530  -0.1363  0.9938  0.0291  -1.7948   0.0000   0.0000   0.0000   0.6317
  -0.500   0.4426   0.02150   0.01268  -0.1422  0.9903  0.0354  -1.4952   0.0000   0.0000   0.0000   0.5715
   0.000   0.5330   0.01977   0.01138  -0.1497  0.9875  0.2037  -1.2720   0.0000   0.0000   0.0000   0.5306
   0.500   0.5995   0.01852   0.01133  -0.1520  0.9763  1.0000  -0.7670   0.0000   0.0000   0.0000   0.5029
   1.000   0.6738   0.01879   0.01124  -0.1561  0.9611  1.0000  -0.5952   0.0000   0.0000   0.0000   0.4806
   1.500   0.7472   0.01882   0.01112  -0.1598  0.9444  1.0000  -0.6747   0.0000   0.0000   0.0000   0.4623
   2.000   0.8186   0.01862   0.01093  -0.1628  0.9249  1.0000  -0.7723   0.0000   0.0000   0.0000   0.4467
   2.500   0.8906   0.01815   0.01059  -0.1654  0.9035  1.0000  -0.8984   0.0000   0.0000   0.0000   0.4331
   3.000   0.9605   0.01738   0.01006  -0.1669  0.8778  1.0000  -1.1004   0.0000   0.0000   0.0000   0.4208
   3.500   1.0305   0.01644   0.00946  -0.1680  0.8428  1.0000  -1.5618   0.0000   0.0000   0.0000   0.4095
   4.000   1.1118   0.01545   0.00882  -0.1711  0.7829  1.0000  -2.1069   0.0000   0.0000   0.0000   0.3998
   4.500   1.1987   0.01527   0.00850  -0.1749  0.6379  1.0000  -2.7422   0.0000   0.0000   0.0000   0.3912
   5.000   1.2329   0.01782   0.00966  -0.1696  0.3815  1.0000  -3.1942   0.0000   0.0000   0.0000   0.3823
   5.500   1.2572   0.02154   0.01181  -0.1646  0.1371  1.0000  -3.5627   0.0000   0.0000   0.0000   0.3750
   6.000   1.2864   0.02564   0.01522  -0.1598  0.0409  1.0000  -3.8365   0.0000   0.0000   0.0000   0.3678
   6.500   1.3192   0.02887   0.01879  -0.1554  0.0318  1.0000  -4.3888   0.0000   0.0000   0.0000   0.3607
   7.000   1.3533   0.03274   0.02290  -0.1513  0.0283  1.0000  -5.0684   0.0000   0.0000   0.0000   0.3541
   7.500   1.3987   0.03757   0.02822  -0.1489  0.0248  1.0000  -5.7856   0.0000   0.0000   0.0000   0.3481
   8.000   1.4441   0.04380   0.03508  -0.1467  0.0229  1.0000  -6.4347   0.0000   0.0000   0.0000   0.3425
   8.500   1.4717   0.05179   0.04416  -0.1418  0.0217  1.0000  -6.7818   0.0000   0.0000   0.0000   0.3367
   9.000   1.4745   0.06047   0.05414  -0.1338  0.0208  1.0000  -6.8074   0.0000   0.0000   0.0000   0.3306
   9.500   1.4583   0.06967   0.06430  -0.1252  0.0209  1.0000  -6.7592   0.0000   0.0000   0.0000   0.3251
  10.000   1.4242   0.07776   0.07303  -0.1162  0.0212  1.0000  -6.6535   0.0000   0.0000   0.0000   0.3203
  10.500   1.3845   0.08659   0.08237  -0.1104  0.0213  1.0000  -6.5183   0.0000   0.0000   0.0000   0.3179
  11.000   1.3450   0.09708   0.09328  -0.1100  0.0216  1.0000  -6.3556   0.0000   0.0000   0.0000   0.3192
  11.500   1.3099   0.10965   0.10615  -0.1154  0.0218  1.0000  -6.1608   0.0000   0.0000   0.0000   0.3248
  12.000   1.2843   0.12403   0.12072  -0.1250  0.0221  1.0000  -5.9457   0.0000   0.0000   0.0000   0.3334
  12.500   1.2462   0.15590   0.15259  -0.1508  0.0255  1.0000  -4.4393   0.0000   0.0000   0.0000   0.3571
  13.000   1.2444   0.16937   0.16598  -0.1592  0.0265  1.0000  -4.1709   0.0000   0.0000   0.0000   0.3636


