xflr5 v6.61

 Calculated polar for: E63  (4.25%)

 1 1 Reynolds number fixed          Mach number fixed         

 xtrf =   1.000 (top)        1.000 (bottom)
 Mach =   0.000     Re =     0.130 e 6     Ncrit =   6.000

  alpha     CL        CD       CDp       Cm    Top Xtr Bot Xtr   Cpmin    Chinge    XCp    
 ------- -------- --------- --------- -------- ------- ------- -------- --------- ---------
 -15.000  -0.5024   0.18975   0.18477  -0.0085  1.0000  0.0126  -1.5457   0.0000   0.0000   0.0000   0.2295
 -14.500  -0.4875   0.18173   0.17680  -0.0093  1.0000  0.0128  -1.4588   0.0000   0.0000   0.0000   0.2275
 -14.000  -0.4746   0.17547   0.17055  -0.0104  1.0000  0.0133  -1.3728   0.0000   0.0000   0.0000   0.2248
 -13.500  -0.4622   0.16992   0.16503  -0.0118  1.0000  0.0139  -1.3372   0.0000   0.0000   0.0000   0.2213
  -9.000  -0.3736   0.12159   0.11711  -0.0193  1.0000  0.0189  -1.3973   0.0000   0.0000   0.0000   0.1960
  -8.500  -0.3678   0.11674   0.11232  -0.0191  1.0000  0.0200  -1.3860   0.0000   0.0000   0.0000   0.1959
  -8.000  -0.3643   0.11226   0.10793  -0.0188  1.0000  0.0210  -1.4090   0.0000   0.0000   0.0000   0.1965
  -6.500  -0.3729   0.10014   0.09614  -0.0125  1.0000  0.0223  -1.4722   0.0000   0.0000   0.0000   0.2149
  -6.000  -0.3723   0.09582   0.09192  -0.0116  1.0000  0.0234  -1.4883   0.0000   0.0000   0.0000   0.2175
  -2.000   0.2268   0.03029   0.02433  -0.1299  0.9806  0.0360  -1.7125   0.0000   0.0000   0.0000   0.8253
  -1.500   0.3335   0.02379   0.01662  -0.1411  0.9819  0.0249  -1.9025   0.0000   0.0000   0.0000   0.6745
  -1.000   0.4224   0.02056   0.01257  -0.1477  0.9805  0.0243  -1.7571   0.0000   0.0000   0.0000   0.6005
  -0.500   0.5030   0.01889   0.01069  -0.1530  0.9757  0.0318  -1.3893   0.0000   0.0000   0.0000   0.5544
   0.500   0.6495   0.01611   0.00964  -0.1606  0.9587  1.0000  -0.5610   0.0000   0.0000   0.0000   0.4966
   1.000   0.7209   0.01603   0.00932  -0.1638  0.9448  1.0000  -0.6294   0.0000   0.0000   0.0000   0.4760
   1.500   0.7931   0.01575   0.00896  -0.1669  0.9298  1.0000  -0.7139   0.0000   0.0000   0.0000   0.4588
   2.000   0.8607   0.01535   0.00860  -0.1687  0.9107  1.0000  -0.8183   0.0000   0.0000   0.0000   0.4440
   3.000   0.9976   0.01394   0.00752  -0.1717  0.8596  1.0000  -1.2582   0.0000   0.0000   0.0000   0.4190
   3.500   1.0776   0.01315   0.00696  -0.1752  0.8106  1.0000  -1.7735   0.0000   0.0000   0.0000   0.4090
   4.000   1.1690   0.01286   0.00659  -0.1808  0.6924  1.0000  -2.3770   0.0000   0.0000   0.0000   0.4005
   4.500   1.2092   0.01478   0.00739  -0.1765  0.4731  1.0000  -2.8403   0.0000   0.0000   0.0000   0.3912
   5.000   1.2339   0.01774   0.00904  -0.1708  0.2427  1.0000  -3.2385   0.0000   0.0000   0.0000   0.3831
   5.500   1.2634   0.02122   0.01134  -0.1667  0.0595  1.0000  -3.5923   0.0000   0.0000   0.0000   0.3760
   6.000   1.2989   0.02422   0.01429  -0.1628  0.0292  1.0000  -3.9462   0.0000   0.0000   0.0000   0.3688
   6.500   1.3332   0.02715   0.01760  -0.1586  0.0251  1.0000  -4.6102   0.0000   0.0000   0.0000   0.3618
   7.000   1.3673   0.03087   0.02146  -0.1547  0.0223  1.0000  -5.3537   0.0000   0.0000   0.0000   0.3554
   7.500   1.4118   0.03516   0.02627  -0.1521  0.0200  1.0000  -6.1048   0.0000   0.0000   0.0000   0.3493
   8.000   1.4563   0.04100   0.03275  -0.1496  0.0186  1.0000  -6.7725   0.0000   0.0000   0.0000   0.3437
   8.500   1.4835   0.04823   0.04099  -0.1448  0.0169  1.0000  -7.1984   0.0000   0.0000   0.0000   0.3379
   9.000   1.4889   0.05715   0.05114  -0.1369  0.0165  1.0000  -7.2924   0.0000   0.0000   0.0000   0.3317
   9.500   1.4719   0.06589   0.06089  -0.1276  0.0156  1.0000  -7.2427   0.0000   0.0000   0.0000   0.3259
  10.000   1.4361   0.07382   0.06949  -0.1179  0.0155  1.0000  -7.1159   0.0000   0.0000   0.0000   0.3207
  10.500   1.3940   0.08306   0.07927  -0.1118  0.0157  1.0000  -6.9239   0.0000   0.0000   0.0000   0.3182
  11.000   1.3512   0.09427   0.09093  -0.1116  0.0160  1.0000  -6.6922   0.0000   0.0000   0.0000   0.3199
  11.500   1.3125   0.10811   0.10511  -0.1184  0.0164  1.0000  -6.4187   0.0000   0.0000   0.0000   0.3268
  12.000   1.2849   0.12430   0.12148  -0.1302  0.0170  1.0000  -6.1303   0.0000   0.0000   0.0000   0.3373
  12.500   1.2700   0.14073   0.13796  -0.1422  0.0175  1.0000  -5.8423   0.0000   0.0000   0.0000   0.3474


