xflr5 v6.61

 Calculated polar for: E63  (4.25%)

 1 1 Reynolds number fixed          Mach number fixed         

 xtrf =   1.000 (top)        1.000 (bottom)
 Mach =   0.000     Re =     0.160 e 6     Ncrit =   6.000

  alpha     CL        CD       CDp       Cm    Top Xtr Bot Xtr   Cpmin    Chinge    XCp    
 ------- -------- --------- --------- -------- ------- ------- -------- --------- ---------
 -10.500  -0.3987   0.13669   0.13250  -0.0179  1.0000  0.0133  -1.4643   0.0000   0.0000   0.0000   0.2026
 -10.000  -0.3900   0.13134   0.12720  -0.0182  1.0000  0.0139  -1.4315   0.0000   0.0000   0.0000   0.2009
  -9.500  -0.3821   0.12615   0.12205  -0.0184  1.0000  0.0144  -1.4138   0.0000   0.0000   0.0000   0.1994
  -9.000  -0.3752   0.12110   0.11705  -0.0185  1.0000  0.0151  -1.4034   0.0000   0.0000   0.0000   0.1986
  -8.500  -0.3696   0.11618   0.11220  -0.0182  1.0000  0.0158  -1.3985   0.0000   0.0000   0.0000   0.1986
  -8.000  -0.3658   0.11156   0.10766  -0.0177  1.0000  0.0167  -1.4061   0.0000   0.0000   0.0000   0.1997
  -7.500  -0.3653   0.10750   0.10368  -0.0168  1.0000  0.0173  -1.4473   0.0000   0.0000   0.0000   0.2022
  -7.000  -0.3716   0.10422   0.10052  -0.0148  1.0000  0.0175  -1.5306   0.0000   0.0000   0.0000   0.2085
  -6.500  -0.3805   0.10115   0.09757  -0.0129  1.0000  0.0176  -1.6321   0.0000   0.0000   0.0000   0.2148
  -6.000  -0.3768   0.09550   0.09200  -0.0108  1.0000  0.0181  -1.5564   0.0000   0.0000   0.0000   0.2200
  -5.500  -0.3707   0.09058   0.08714  -0.0111  1.0000  0.0190  -1.5358   0.0000   0.0000   0.0000   0.2189
  -5.000  -0.3109   0.08208   0.07861  -0.0268  0.9926  0.0211  -1.5976   0.0000   0.0000   0.0000   0.1620
  -4.500  -0.2529   0.07360   0.07010  -0.0403  0.9851  0.0224  -1.5831   0.0000   0.0000   0.0000   0.0884
  -3.000   0.0373   0.04460   0.04049  -0.1035  0.9699  0.0366  -1.5402   0.0000   0.0000   0.0000   3.0454
  -2.000   0.2788   0.02613   0.02029  -0.1397  0.9723  0.0254  -1.8508   0.0000   0.0000   0.0000   0.7533
  -1.500   0.3783   0.02102   0.01405  -0.1491  0.9732  0.0206  -1.9230   0.0000   0.0000   0.0000   0.6455
  -1.000   0.4622   0.01833   0.01067  -0.1546  0.9707  0.0212  -1.7357   0.0000   0.0000   0.0000   0.5853
  -0.500   0.5404   0.01697   0.00920  -0.1595  0.9654  0.0295  -1.3312   0.0000   0.0000   0.0000   0.5453
   0.500   0.6834   0.01418   0.00826  -0.1663  0.9486  1.0000  -0.5823   0.0000   0.0000   0.0000   0.4926
   1.000   0.7528   0.01394   0.00784  -0.1689  0.9352  1.0000  -0.6534   0.0000   0.0000   0.0000   0.4732
   1.500   0.8203   0.01359   0.00743  -0.1709  0.9195  1.0000  -0.7388   0.0000   0.0000   0.0000   0.4567
   2.000   0.8888   0.01300   0.00689  -0.1727  0.9022  1.0000  -0.8504   0.0000   0.0000   0.0000   0.4422
   2.500   0.9534   0.01244   0.00646  -0.1736  0.8767  1.0000  -1.0094   0.0000   0.0000   0.0000   0.4295
   3.000   1.0294   0.01174   0.00593  -0.1767  0.8399  1.0000  -1.3920   0.0000   0.0000   0.0000   0.4186
   3.500   1.1251   0.01120   0.00539  -0.1838  0.7560  1.0000  -1.9839   0.0000   0.0000   0.0000   0.4097
   4.000   1.1805   0.01234   0.00580  -0.1826  0.5866  1.0000  -2.4485   0.0000   0.0000   0.0000   0.4004
   4.500   1.2049   0.01493   0.00706  -0.1761  0.3516  1.0000  -2.8472   0.0000   0.0000   0.0000   0.3914
   5.000   1.2366   0.01757   0.00870  -0.1722  0.1648  1.0000  -3.2737   0.0000   0.0000   0.0000   0.3839
   5.500   1.2693   0.02081   0.01105  -0.1684  0.0337  1.0000  -3.6182   0.0000   0.0000   0.0000   0.3767
   6.000   1.3089   0.02310   0.01359  -0.1651  0.0238  1.0000  -4.0530   0.0000   0.0000   0.0000   0.3696
   6.500   1.3441   0.02589   0.01670  -0.1611  0.0211  1.0000  -4.7920   0.0000   0.0000   0.0000   0.3627
   7.000   1.3801   0.02889   0.01992  -0.1575  0.0182  1.0000  -5.6101   0.0000   0.0000   0.0000   0.3563
   7.500   1.4214   0.03348   0.02483  -0.1547  0.0171  1.0000  -6.3738   0.0000   0.0000   0.0000   0.3504
   8.000   1.4639   0.03870   0.03083  -0.1517  0.0153  1.0000  -7.0512   0.0000   0.0000   0.0000   0.3445
   8.500   1.4945   0.04542   0.03846  -0.1472  0.0143  1.0000  -7.5747   0.0000   0.0000   0.0000   0.3387
   9.000   1.5020   0.05327   0.04731  -0.1401  0.0128  1.0000  -7.9080   0.0000   0.0000   0.0000   0.3329
   9.500   1.4876   0.06244   0.05751  -0.1307  0.0127  1.0000  -7.8223   0.0000   0.0000   0.0000   0.3269
  10.000   1.4535   0.07043   0.06617  -0.1204  0.0127  1.0000  -7.6901   0.0000   0.0000   0.0000   0.3214
  10.500   1.4135   0.07923   0.07552  -0.1135  0.0127  1.0000  -7.5345   0.0000   0.0000   0.0000   0.3182
  11.000   1.3729   0.08967   0.08640  -0.1118  0.0129  1.0000  -7.3625   0.0000   0.0000   0.0000   0.3186
  11.500   1.3354   0.10225   0.09934  -0.1163  0.0130  1.0000  -7.1668   0.0000   0.0000   0.0000   0.3235
  12.000   1.3045   0.11750   0.11484  -0.1267  0.0132  1.0000  -6.9136   0.0000   0.0000   0.0000   0.3328
  13.000   1.2570   0.16735   0.16475  -0.1621  0.0166  1.0000  -4.6139   0.0000   0.0000   0.0000   0.3643
  13.500   1.2582   0.17975   0.17709  -0.1699  0.0170  1.0000  -4.3797   0.0000   0.0000   0.0000   0.3698


