xflr5 v6.61

 Calculated polar for: E63  (4.25%)

 1 1 Reynolds number fixed          Mach number fixed         

 xtrf =   1.000 (top)        1.000 (bottom)
 Mach =   0.000     Re =     0.030 e 6     Ncrit =   6.000

  alpha     CL        CD       CDp       Cm    Top Xtr Bot Xtr   Cpmin    Chinge    XCp    
 ------- -------- --------- --------- -------- ------- ------- -------- --------- ---------
 -15.000  -0.5054   0.19267   0.18247  -0.0094  1.0000  0.0714  -1.2801   0.0000   0.0000   0.0000   0.2281
 -14.500  -0.4951   0.18931   0.17918  -0.0119  1.0000  0.0743  -1.2957   0.0000   0.0000   0.0000   0.2229
 -14.000  -0.4796   0.18242   0.17235  -0.0130  1.0000  0.0784  -1.2701   0.0000   0.0000   0.0000   0.2198
 -13.500  -0.4710   0.17919   0.16920  -0.0153  1.0000  0.0813  -1.3057   0.0000   0.0000   0.0000   0.2146
 -13.000  -0.4554   0.17218   0.16222  -0.0162  1.0000  0.0862  -1.2745   0.0000   0.0000   0.0000   0.2116
 -12.000  -0.4342   0.16225   0.15247  -0.0189  1.0000  0.0947  -1.2817   0.0000   0.0000   0.0000   0.2038
 -10.500  -0.4066   0.14712   0.13767  -0.0217  1.0000  0.1095  -1.2757   0.0000   0.0000   0.0000   0.1943
 -10.000  -0.3968   0.14144   0.13209  -0.0219  1.0000  0.1160  -1.2562   0.0000   0.0000   0.0000   0.1924
  -8.500  -0.3480   0.12755   0.11888  -0.0223  1.0000  0.1431  -1.1717   0.0000   0.0000   0.0000   0.1840
  -6.000  -0.3683   0.10388   0.09588  -0.0175  1.0000  0.1901  -1.3160   0.0000   0.0000   0.0000   0.2009
  -2.000   0.0636   0.04562   0.03619  -0.0985  1.0000  0.0991  -1.5265   0.0000   0.0000   0.0000   1.8084
  -1.500   0.1843   0.03836   0.02766  -0.1157  1.0000  0.0921  -1.5624   0.0000   0.0000   0.0000   0.8799
  -1.000   0.2849   0.03366   0.02137  -0.1255  1.0000  0.0940  -1.5220   0.0000   0.0000   0.0000   0.6915
  -0.500   0.3566   0.03108   0.01773  -0.1284  1.0000  0.1178  -1.3995   0.0000   0.0000   0.0000   0.6104
   0.500   0.4807   0.02667   0.01427  -0.1305  1.0000  1.0000  -1.1572   0.0000   0.0000   0.0000   0.5208
   1.000   0.5294   0.02778   0.01455  -0.1304  1.0000  1.0000  -0.7333   0.0000   0.0000   0.0000   0.4951
   1.500   0.5753   0.02909   0.01539  -0.1301  1.0000  1.0000  -0.5495   0.0000   0.0000   0.0000   0.4746
   2.000   0.6188   0.03062   0.01667  -0.1298  1.0000  1.0000  -0.5997   0.0000   0.0000   0.0000   0.4577
   2.500   0.6599   0.03242   0.01842  -0.1295  1.0000  1.0000  -0.6556   0.0000   0.0000   0.0000   0.4438
   3.000   0.6982   0.03457   0.02063  -0.1293  1.0000  1.0000  -0.7187   0.0000   0.0000   0.0000   0.4322
   3.500   0.7334   0.03714   0.02342  -0.1293  1.0000  1.0000  -0.7894   0.0000   0.0000   0.0000   0.4228
   4.000   0.8185   0.03992   0.02673  -0.1383  0.9605  1.0000  -0.9528   0.0000   0.0000   0.0000   0.4150
   4.500   0.9110   0.04129   0.02887  -0.1466  0.9101  1.0000  -1.2944   0.0000   0.0000   0.0000   0.4064
   5.000   1.0016   0.04126   0.02987  -0.1518  0.8494  1.0000  -1.8294   0.0000   0.0000   0.0000   0.3966
   5.500   1.1012   0.03861   0.02867  -0.1536  0.7736  1.0000  -2.4600   0.0000   0.0000   0.0000   0.3839
   6.000   1.2062   0.03313   0.02470  -0.1489  0.6253  1.0000  -3.2561   0.0000   0.0000   0.0000   0.3673
   6.500   1.2342   0.03520   0.02523  -0.1368  0.3468  1.0000  -3.6180   0.0000   0.0000   0.0000   0.3540
   7.000   1.2382   0.04241   0.03064  -0.1287  0.1721  1.0000  -3.7381   0.0000   0.0000   0.0000   0.3464
   7.500   1.2775   0.04936   0.03739  -0.1260  0.1022  1.0000  -4.0775   0.0000   0.0000   0.0000   0.3405
   8.000   1.3526   0.05758   0.04642  -0.1273  0.0778  1.0000  -4.6741   0.0000   0.0000   0.0000   0.3354
   8.500   1.3954   0.06708   0.05713  -0.1249  0.0716  1.0000  -5.0140   0.0000   0.0000   0.0000   0.3303
   9.000   1.3970   0.07663   0.06803  -0.1191  0.0686  1.0000  -5.0595   0.0000   0.0000   0.0000   0.3256
   9.500   1.3866   0.08594   0.07816  -0.1139  0.0664  1.0000  -5.0939   0.0000   0.0000   0.0000   0.3219
  10.000   1.3520   0.09525   0.08815  -0.1087  0.0670  1.0000  -4.9437   0.0000   0.0000   0.0000   0.3197
  10.500   1.3069   0.10573   0.09909  -0.1072  0.0689  1.0000  -4.6968   0.0000   0.0000   0.0000   0.3208
  11.000   1.2711   0.11808   0.11168  -0.1114  0.0707  1.0000  -4.4627   0.0000   0.0000   0.0000   0.3259
  12.000   1.2241   0.15031   0.14395  -0.1343  0.0779  1.0000  -3.7387   0.0000   0.0000   0.0000   0.3471
  13.000   1.2192   0.17715   0.17057  -0.1529  0.0842  1.0000  -3.2974   0.0000   0.0000   0.0000   0.3618
  13.500   1.2228   0.18878   0.18212  -0.1612  0.0891  1.0000  -3.1264   0.0000   0.0000   0.0000   0.3676
  14.000   1.2322   0.19986   0.19317  -0.1683  0.0976  1.0000  -3.0075   0.0000   0.0000   0.0000   0.3718


