xflr5 v6.61

 Calculated polar for: E63  (4.25%)

 1 1 Reynolds number fixed          Mach number fixed         

 xtrf =   1.000 (top)        1.000 (bottom)
 Mach =   0.000     Re =     0.040 e 6     Ncrit =   6.000

  alpha     CL        CD       CDp       Cm    Top Xtr Bot Xtr   Cpmin    Chinge    XCp    
 ------- -------- --------- --------- -------- ------- ------- -------- --------- ---------
 -13.000  -0.4508   0.16951   0.16082  -0.0160  1.0000  0.0576  -1.2912   0.0000   0.0000   0.0000   0.2115
 -12.500  -0.4405   0.16501   0.15640  -0.0178  1.0000  0.0606  -1.3107   0.0000   0.0000   0.0000   0.2069
 -12.000  -0.4288   0.15928   0.15075  -0.0188  1.0000  0.0627  -1.3058   0.0000   0.0000   0.0000   0.2033
 -11.500  -0.4185   0.15427   0.14581  -0.0200  1.0000  0.0667  -1.3044   0.0000   0.0000   0.0000   0.1996
 -11.000  -0.4086   0.14886   0.14051  -0.0209  1.0000  0.0692  -1.3035   0.0000   0.0000   0.0000   0.1963
 -10.500  -0.3999   0.14398   0.13572  -0.0218  1.0000  0.0734  -1.3011   0.0000   0.0000   0.0000   0.1931
 -10.000  -0.3906   0.13839   0.13023  -0.0222  1.0000  0.0764  -1.2890   0.0000   0.0000   0.0000   0.1908
  -9.500  -0.3848   0.13403   0.12595  -0.0229  1.0000  0.0807  -1.2950   0.0000   0.0000   0.0000   0.1883
  -9.000  -0.3757   0.12821   0.12025  -0.0226  1.0000  0.0845  -1.2668   0.0000   0.0000   0.0000   0.1875
  -8.500  -0.3757   0.12483   0.11703  -0.0230  1.0000  0.0884  -1.3115   0.0000   0.0000   0.0000   0.1867
  -8.000  -0.3673   0.11892   0.11125  -0.0220  1.0000  0.0937  -1.2996   0.0000   0.0000   0.0000   0.1882
  -7.000  -0.3734   0.11158   0.10430  -0.0195  1.0000  0.1025  -1.3642   0.0000   0.0000   0.0000   0.1962
  -6.500  -0.3682   0.10640   0.09928  -0.0188  1.0000  0.1091  -1.3654   0.0000   0.0000   0.0000   0.1973
  -6.000  -0.3621   0.10145   0.09446  -0.0194  1.0000  0.1165  -1.3763   0.0000   0.0000   0.0000   0.1948
  -5.000  -0.3379   0.09044   0.08373  -0.0222  1.0000  0.1369  -1.3640   0.0000   0.0000   0.0000   0.1828
  -4.500  -0.3180   0.08463   0.07802  -0.0254  1.0000  0.1511  -1.3491   0.0000   0.0000   0.0000   0.1684
  -2.000   0.0732   0.04337   0.03509  -0.1003  1.0000  0.0869  -1.5041   0.0000   0.0000   0.0000   1.6271
  -1.500   0.2055   0.03524   0.02548  -0.1190  1.0000  0.0671  -1.6407   0.0000   0.0000   0.0000   0.8312
  -1.000   0.2993   0.03092   0.01996  -0.1276  1.0000  0.0724  -1.5597   0.0000   0.0000   0.0000   0.6773
  -0.500   0.3725   0.02838   0.01641  -0.1306  1.0000  0.0838  -1.4150   0.0000   0.0000   0.0000   0.6009
   0.000   0.4470   0.02635   0.01431  -0.1344  1.0000  0.1777  -1.3365   0.0000   0.0000   0.0000   0.5505
   0.500   0.4996   0.02439   0.01360  -0.1338  1.0000  1.0000  -1.1224   0.0000   0.0000   0.0000   0.5172
   1.000   0.5474   0.02552   0.01404  -0.1336  1.0000  1.0000  -0.6901   0.0000   0.0000   0.0000   0.4929
   1.500   0.5926   0.02686   0.01499  -0.1332  1.0000  1.0000  -0.5604   0.0000   0.0000   0.0000   0.4732
   2.000   0.6352   0.02843   0.01637  -0.1329  1.0000  1.0000  -0.6115   0.0000   0.0000   0.0000   0.4571
   2.500   0.6753   0.03030   0.01821  -0.1325  1.0000  1.0000  -0.6682   0.0000   0.0000   0.0000   0.4437
   3.000   0.7482   0.03239   0.02044  -0.1385  0.9771  1.0000  -0.7693   0.0000   0.0000   0.0000   0.4321
   3.500   0.8342   0.03358   0.02197  -0.1458  0.9418  1.0000  -0.9229   0.0000   0.0000   0.0000   0.4213
   4.000   0.9204   0.03389   0.02284  -0.1517  0.9020  1.0000  -1.2063   0.0000   0.0000   0.0000   0.4108
   4.500   1.0033   0.03327   0.02305  -0.1552  0.8538  1.0000  -1.7137   0.0000   0.0000   0.0000   0.4001
   5.000   1.0911   0.03103   0.02186  -0.1564  0.7956  1.0000  -2.2921   0.0000   0.0000   0.0000   0.3883
   5.500   1.1791   0.02790   0.01980  -0.1546  0.6940  1.0000  -2.9651   0.0000   0.0000   0.0000   0.3755
   6.000   1.2350   0.02806   0.01940  -0.1477  0.4529  1.0000  -3.5088   0.0000   0.0000   0.0000   0.3633
   6.500   1.2375   0.03371   0.02307  -0.1384  0.2003  1.0000  -3.6997   0.0000   0.0000   0.0000   0.3549
   7.000   1.2614   0.04034   0.02866  -0.1340  0.0901  1.0000  -3.9350   0.0000   0.0000   0.0000   0.3487
   7.500   1.3259   0.04662   0.03524  -0.1339  0.0652  1.0000  -4.5544   0.0000   0.0000   0.0000   0.3428
   8.000   1.3855   0.05425   0.04395  -0.1330  0.0549  1.0000  -5.1129   0.0000   0.0000   0.0000   0.3372
   8.500   1.4189   0.06309   0.05383  -0.1294  0.0516  1.0000  -5.4466   0.0000   0.0000   0.0000   0.3318
   9.000   1.4241   0.07278   0.06478  -0.1232  0.0511  1.0000  -5.4970   0.0000   0.0000   0.0000   0.3267
   9.500   1.4099   0.08236   0.07530  -0.1167  0.0513  1.0000  -5.4550   0.0000   0.0000   0.0000   0.3224
  10.000   1.3795   0.09121   0.08480  -0.1105  0.0516  1.0000  -5.3563   0.0000   0.0000   0.0000   0.3192
  10.500   1.3429   0.10035   0.09438  -0.1068  0.0520  1.0000  -5.2293   0.0000   0.0000   0.0000   0.3181
  11.000   1.2876   0.11290   0.10739  -0.1104  0.0539  1.0000  -4.8303   0.0000   0.0000   0.0000   0.3238
  11.500   1.2464   0.12950   0.12413  -0.1223  0.0559  1.0000  -4.3839   0.0000   0.0000   0.0000   0.3357
  12.000   1.2321   0.14566   0.14026  -0.1338  0.0579  1.0000  -4.0705   0.0000   0.0000   0.0000   0.3456
  12.500   1.2222   0.16246   0.15692  -0.1463  0.0614  1.0000  -3.6489   0.0000   0.0000   0.0000   0.3564
  13.000   1.2263   0.17448   0.16888  -0.1533  0.0646  1.0000  -3.5140   0.0000   0.0000   0.0000   0.3611
  13.500   1.2313   0.18701   0.18134  -0.1614  0.0713  1.0000  -3.3015   0.0000   0.0000   0.0000   0.3667
  14.000   1.2388   0.20743   0.20173  -0.1774  0.1490  1.0000  -2.6534   0.0000   0.0000   0.0000   0.3787
  14.500   1.2494   0.21620   0.21050  -0.1831  0.1489  1.0000  -2.6294   0.0000   0.0000   0.0000   0.3813
  15.000   1.2592   0.22363   0.21791  -0.1884  0.1424  1.0000  -2.6170   0.0000   0.0000   0.0000   0.3836


