xflr5 v6.61

 Calculated polar for: E63  (4.25%)

 1 1 Reynolds number fixed          Mach number fixed         

 xtrf =   1.000 (top)        1.000 (bottom)
 Mach =   0.000     Re =     0.300 e 6     Ncrit =   6.000

  alpha     CL        CD       CDp       Cm    Top Xtr Bot Xtr   Cpmin    Chinge    XCp    
 ------- -------- --------- --------- -------- ------- ------- -------- --------- ---------
  -8.000  -0.3751   0.11060   0.10778  -0.0153  1.0000  0.0080  -1.6333   0.0000   0.0000   0.0000   0.2072
  -7.500  -0.3741   0.10612   0.10335  -0.0137  1.0000  0.0082  -1.5774   0.0000   0.0000   0.0000   0.2116
  -7.000  -0.3581   0.10056   0.09783  -0.0168  0.9975  0.0086  -1.5121   0.0000   0.0000   0.0000   0.2013
  -6.500  -0.3324   0.09442   0.09170  -0.0228  0.9919  0.0090  -1.4956   0.0000   0.0000   0.0000   0.1793
  -6.000  -0.2956   0.08725   0.08452  -0.0316  0.9850  0.0096  -1.4935   0.0000   0.0000   0.0000   0.1408
  -5.500  -0.2512   0.07959   0.07686  -0.0422  0.9775  0.0105  -1.5091   0.0000   0.0000   0.0000   0.0791
  -5.000  -0.1889   0.07132   0.06856  -0.0582  0.9704  0.0123  -1.6522   0.0000   0.0000   0.0000  -0.0622
  -0.500   0.6272   0.01180   0.00530  -0.1745  0.9458  0.0275  -1.1265   0.0000   0.0000   0.0000   0.5284
   0.000   0.6986   0.00965   0.00529  -0.1785  0.9408  0.8589  -0.5910   0.0000   0.0000   0.0000   0.5052
   0.500   0.7612   0.00911   0.00463  -0.1794  0.9298  1.0000  -0.6349   0.0000   0.0000   0.0000   0.4849
   1.000   0.8233   0.00874   0.00418  -0.1802  0.9150  1.0000  -0.7093   0.0000   0.0000   0.0000   0.4677
   1.500   0.8894   0.00835   0.00376  -0.1820  0.8951  1.0000  -0.8070   0.0000   0.0000   0.0000   0.4529
   2.000   0.9711   0.00787   0.00327  -0.1871  0.8621  1.0000  -0.9633   0.0000   0.0000   0.0000   0.4405
   2.500   1.0576   0.00781   0.00299  -0.1932  0.7880  1.0000  -1.3269   0.0000   0.0000   0.0000   0.4300
   3.000   1.1079   0.00871   0.00334  -0.1915  0.6669  1.0000  -1.7356   0.0000   0.0000   0.0000   0.4196
   3.500   1.1369   0.01072   0.00421  -0.1857  0.4559  1.0000  -2.0809   0.0000   0.0000   0.0000   0.4097
   4.000   1.1733   0.01268   0.00528  -0.1823  0.2765  1.0000  -2.4729   0.0000   0.0000   0.0000   0.4011
   4.500   1.2125   0.01476   0.00651  -0.1797  0.1198  1.0000  -2.9382   0.0000   0.0000   0.0000   0.3934
   5.000   1.2528   0.01687   0.00809  -0.1770  0.0235  1.0000  -3.3677   0.0000   0.0000   0.0000   0.3859
   5.500   1.2976   0.01833   0.00969  -0.1748  0.0161  1.0000  -3.8034   0.0000   0.0000   0.0000   0.3787
   6.000   1.3398   0.02011   0.01169  -0.1722  0.0136  1.0000  -4.4991   0.0000   0.0000   0.0000   0.3719
   6.500   1.3786   0.02230   0.01414  -0.1688  0.0126  1.0000  -5.3703   0.0000   0.0000   0.0000   0.3652
   7.000   1.4152   0.02508   0.01719  -0.1651  0.0119  1.0000  -6.2274   0.0000   0.0000   0.0000   0.3588
   7.500   1.4531   0.02814   0.02054  -0.1618  0.0105  1.0000  -7.1535   0.0000   0.0000   0.0000   0.3528
   8.000   1.4908   0.03391   0.02678  -0.1588  0.0095  1.0000  -7.9549   0.0000   0.0000   0.0000   0.3473
   8.500   1.5223   0.03847   0.03226  -0.1539  0.0082  1.0000  -8.7385   0.0000   0.0000   0.0000   0.3412
   9.000   1.5432   0.04275   0.03705  -0.1489  0.0066  1.0000  -9.6963   0.0000   0.0000   0.0000   0.3359
   9.500   1.5337   0.05189   0.04714  -0.1397  0.0060  1.0000  -9.7781   0.0000   0.0000   0.0000   0.3299
  10.000   1.5046   0.05938   0.05546  -0.1282  0.0058  1.0000  -9.6332   0.0000   0.0000   0.0000   0.3235
  10.500   1.4650   0.06827   0.06500  -0.1191  0.0057  1.0000  -9.3961   0.0000   0.0000   0.0000   0.3189
  11.000   1.4224   0.07879   0.07602  -0.1151  0.0057  1.0000  -9.1552   0.0000   0.0000   0.0000   0.3178
  11.500   1.3814   0.09142   0.08905  -0.1176  0.0057  1.0000  -8.9263   0.0000   0.0000   0.0000   0.3212
  12.000   1.3461   0.10693   0.10487  -0.1269  0.0059  1.0000  -8.6768   0.0000   0.0000   0.0000   0.3296
  12.500   1.3190   0.12560   0.12372  -0.1410  0.0061  1.0000  -8.3013   0.0000   0.0000   0.0000   0.3416


