xflr5 v6.61

 Calculated polar for: E63  (4.25%)

 1 1 Reynolds number fixed          Mach number fixed         

 xtrf =   1.000 (top)        1.000 (bottom)
 Mach =   0.000     Re =     0.500 e 6     Ncrit =   6.000

  alpha     CL        CD       CDp       Cm    Top Xtr Bot Xtr   Cpmin    Chinge    XCp    
 ------- -------- --------- --------- -------- ------- ------- -------- --------- ---------
 -15.000  -0.5107   0.18540   0.18287  -0.0028  1.0000  0.0039  -1.4377   0.0000   0.0000   0.0000   0.2409
 -14.500  -0.4976   0.17984   0.17733  -0.0046  1.0000  0.0040  -1.4289   0.0000   0.0000   0.0000   0.2375
 -14.000  -0.4848   0.17427   0.17177  -0.0062  1.0000  0.0042  -1.4191   0.0000   0.0000   0.0000   0.2340
 -13.500  -0.4722   0.16869   0.16620  -0.0077  1.0000  0.0043  -1.4134   0.0000   0.0000   0.0000   0.2306
 -13.000  -0.4597   0.16322   0.16075  -0.0092  1.0000  0.0044  -1.4200   0.0000   0.0000   0.0000   0.2271
 -12.500  -0.4479   0.15778   0.15532  -0.0106  1.0000  0.0045  -1.4910   0.0000   0.0000   0.0000   0.2235
 -12.000  -0.4371   0.15242   0.14998  -0.0119  1.0000  0.0045  -1.5677   0.0000   0.0000   0.0000   0.2200
  -2.000   0.4594   0.01298   0.00806  -0.1731  0.9515  0.0097  -2.1400   0.0000   0.0000   0.0000   0.6285
  -1.500   0.5385   0.01056   0.00513  -0.1779  0.9505  0.0090  -1.9384   0.0000   0.0000   0.0000   0.5814
  -1.000   0.6079   0.00944   0.00389  -0.1807  0.9445  0.0118  -1.3959   0.0000   0.0000   0.0000   0.5479
  -0.500   0.6757   0.00857   0.00305  -0.1831  0.9374  0.0558  -0.9666   0.0000   0.0000   0.0000   0.5212
   0.000   0.7476   0.00724   0.00300  -0.1875  0.9297  0.5850  -0.6037   0.0000   0.0000   0.0000   0.5005
   0.500   0.8032   0.00623   0.00267  -0.1869  0.9135  1.0000  -0.6647   0.0000   0.0000   0.0000   0.4819
   1.000   0.8823   0.00587   0.00219  -0.1918  0.8900  1.0000  -0.7582   0.0000   0.0000   0.0000   0.4661
   1.500   0.9697   0.00580   0.00188  -0.1985  0.8339  1.0000  -0.8914   0.0000   0.0000   0.0000   0.4531
   2.000   1.0236   0.00644   0.00206  -0.1978  0.7390  1.0000  -1.0511   0.0000   0.0000   0.0000   0.4410
   2.500   1.0640   0.00750   0.00252  -0.1942  0.6169  1.0000  -1.3735   0.0000   0.0000   0.0000   0.4299
   3.000   1.0986   0.00929   0.00329  -0.1900  0.4169  1.0000  -1.7231   0.0000   0.0000   0.0000   0.4198
   3.500   1.1403   0.01092   0.00412  -0.1876  0.2553  1.0000  -2.1157   0.0000   0.0000   0.0000   0.4108
   4.000   1.1829   0.01261   0.00509  -0.1855  0.1158  1.0000  -2.5477   0.0000   0.0000   0.0000   0.4026
   4.500   1.2260   0.01429   0.00625  -0.1833  0.0223  1.0000  -3.0155   0.0000   0.0000   0.0000   0.3947
   5.000   1.2732   0.01537   0.00740  -0.1816  0.0124  1.0000  -3.4923   0.0000   0.0000   0.0000   0.3872
   5.500   1.3197   0.01652   0.00870  -0.1798  0.0106  1.0000  -4.0181   0.0000   0.0000   0.0000   0.3802
   6.000   1.3622   0.01827   0.01067  -0.1771  0.0096  1.0000  -4.8030   0.0000   0.0000   0.0000   0.3734
   6.500   1.4022   0.02030   0.01291  -0.1740  0.0092  1.0000  -5.7337   0.0000   0.0000   0.0000   0.3668
   7.000   1.4416   0.02245   0.01531  -0.1709  0.0085  1.0000  -6.7182   0.0000   0.0000   0.0000   0.3606
   7.500   1.4796   0.02519   0.01835  -0.1675  0.0077  1.0000  -7.6950   0.0000   0.0000   0.0000   0.3546
   8.000   1.5160   0.02821   0.02166  -0.1643  0.0065  1.0000  -8.8890   0.0000   0.0000   0.0000   0.3491
   9.000   1.5797   0.03509   0.02955  -0.1563  0.0043  1.0000  -11.1855   0.0000   0.0000   0.0000   0.3382
   9.500   1.5984   0.03942   0.03449  -0.1506  0.0033  1.0000  -12.1803   0.0000   0.0000   0.0000   0.3328
  10.000   1.5996   0.04517   0.04097  -0.1422  0.0027  1.0000  -12.6912   0.0000   0.0000   0.0000   0.3268
  10.500   1.5939   0.04921   0.04541  -0.1338  0.0024  1.0000  -13.4609   0.0000   0.0000   0.0000   0.3211
  11.000   1.5836   0.05388   0.05045  -0.1265  0.0023  1.0000  -14.2274   0.0000   0.0000   0.0000   0.3163
  11.500   1.5446   0.06338   0.06053  -0.1192  0.0022  1.0000  -14.0774   0.0000   0.0000   0.0000   0.3128
  12.000   1.4981   0.07573   0.07343  -0.1170  0.0022  1.0000  -13.6738   0.0000   0.0000   0.0000   0.3129
  12.500   1.4574   0.09009   0.08819  -0.1217  0.0022  1.0000  -13.3816   0.0000   0.0000   0.0000   0.3174


