xflr5 v6.61

 Calculated polar for: NACA 0012

 1 1 Reynolds number fixed          Mach number fixed         

 xtrf =   1.000 (top)        1.000 (bottom)
 Mach =   0.000     Re =     0.030 e 6     Ncrit =   6.000

  alpha     CL        CD       CDp       Cm    Top Xtr Bot Xtr   Cpmin    Chinge    XCp    
 ------- -------- --------- --------- -------- ------- ------- -------- --------- ---------
 -15.000  -0.4533   0.16378   0.15432   0.0107  1.0000  0.2455  -1.0931   0.0000   0.0000   0.0000   0.2634
 -14.500  -0.4471   0.15890   0.14941   0.0094  1.0000  0.2548  -1.1075   0.0000   0.0000   0.0000   0.2611
 -13.000  -0.6515   0.15155   0.14120   0.0140  1.0000  0.1514  -1.9141   0.0000   0.0000   0.0000   0.2586
 -12.500  -0.6503   0.14171   0.13138   0.0099  1.0000  0.1480  -1.9890   0.0000   0.0000   0.0000   0.2527
 -12.000  -0.6652   0.12980   0.11955   0.0033  1.0000  0.1437  -2.1583   0.0000   0.0000   0.0000   0.2430
 -11.500  -0.6653   0.12019   0.10998   0.0001  1.0000  0.1469  -2.2033   0.0000   0.0000   0.0000   0.2385
 -10.500  -0.7522   0.08699   0.07699  -0.0202  1.0000  0.1434  -2.7969   0.0000   0.0000   0.0000   0.2125
 -10.000  -0.8099   0.07416   0.06404  -0.0234  1.0000  0.1426  -3.0442   0.0000   0.0000   0.0000   0.2111
  -9.500  -0.8424   0.06426   0.05368  -0.0224  1.0000  0.1455  -3.1634   0.0000   0.0000   0.0000   0.2140
  -9.000  -0.8494   0.05647   0.04517  -0.0198  1.0000  0.1536  -3.1682   0.0000   0.0000   0.0000   0.2177
  -8.500  -0.8245   0.05118   0.03963  -0.0174  1.0000  0.1675  -3.0301   0.0000   0.0000   0.0000   0.2202
  -8.000  -0.7997   0.04601   0.03398  -0.0148  1.0000  0.1860  -2.9073   0.0000   0.0000   0.0000   0.2233
  -7.500  -0.7663   0.04188   0.02957  -0.0123  1.0000  0.2120  -2.7371   0.0000   0.0000   0.0000   0.2262
  -7.000  -0.7304   0.03831   0.02582  -0.0096  1.0000  0.2478  -2.5527   0.0000   0.0000   0.0000   0.2294
  -6.500  -0.6937   0.03539   0.02292  -0.0066  1.0000  0.2964  -2.3706   0.0000   0.0000   0.0000   0.2335
  -6.000  -0.6577   0.03306   0.02085  -0.0029  1.0000  0.3590  -2.1777   0.0000   0.0000   0.0000   0.2391
  -5.500  -0.6221   0.03131   0.01942   0.0018  1.0000  0.4331  -1.9868   0.0000   0.0000   0.0000   0.2467
  -5.000  -0.5874   0.03006   0.01837   0.0073  1.0000  0.5128  -1.8021   0.0000   0.0000   0.0000   0.2567
  -4.500  -0.5479   0.02938   0.01791   0.0131  1.0000  0.5910  -1.6116   0.0000   0.0000   0.0000   0.2686
  -4.000  -0.5041   0.02904   0.01760   0.0186  1.0000  0.6667  -1.4230   0.0000   0.0000   0.0000   0.2820
  -3.500  -0.4508   0.02900   0.01747   0.0227  1.0000  0.7389  -1.2359   0.0000   0.0000   0.0000   0.2956
  -3.000  -0.3793   0.02913   0.01731   0.0231  1.0000  0.8079  -1.0401   0.0000   0.0000   0.0000   0.3061
  -2.500  -0.2797   0.02908   0.01683   0.0168  1.0000  0.8731  -0.8355   0.0000   0.0000   0.0000   0.3051
  -2.000  -0.1587   0.02835   0.01568   0.0040  1.0000  0.9337  -0.6483   0.0000   0.0000   0.0000   0.2691
  -1.500  -0.0330   0.02688   0.01393  -0.0119  1.0000  0.9880  -0.5001   0.0000   0.0000   0.0000  -0.1280
  -1.000   0.0051   0.02574   0.01279  -0.0131  1.0000  1.0000  -0.4471   0.0000   0.0000   0.0000   2.9009
  -0.500   0.0056   0.02518   0.01230  -0.0072  1.0000  1.0000  -0.4255   0.0000   0.0000   0.0000   1.5695
   0.000   0.0000   0.02499   0.01215  -0.0000  1.0000  1.0000  -0.4092   0.0000   0.0000   0.0000   0.3965
   0.500  -0.0056   0.02518   0.01230   0.0072  1.0000  1.0000  -0.4255   0.0000   0.0000   0.0000   1.5712
   1.000  -0.0051   0.02573   0.01278   0.0131  1.0000  1.0000  -0.4471   0.0000   0.0000   0.0000   2.9095
   1.500   0.0330   0.02688   0.01392   0.0119  0.9880  1.0000  -0.5001   0.0000   0.0000   0.0000  -0.1286
   2.000   0.1587   0.02835   0.01567  -0.0040  0.9337  1.0000  -0.6483   0.0000   0.0000   0.0000   0.2691
   2.500   0.2797   0.02908   0.01683  -0.0168  0.8731  1.0000  -0.8355   0.0000   0.0000   0.0000   0.3051
   3.000   0.3792   0.02913   0.01731  -0.0231  0.8079  1.0000  -1.0401   0.0000   0.0000   0.0000   0.3061
   3.500   0.4508   0.02900   0.01747  -0.0227  0.7390  1.0000  -1.2359   0.0000   0.0000   0.0000   0.2956
   4.000   0.5040   0.02904   0.01760  -0.0186  0.6667  1.0000  -1.4230   0.0000   0.0000   0.0000   0.2819
   4.500   0.5479   0.02938   0.01791  -0.0131  0.5910  1.0000  -1.6115   0.0000   0.0000   0.0000   0.2686
   5.000   0.5874   0.03005   0.01837  -0.0073  0.5128  1.0000  -1.8021   0.0000   0.0000   0.0000   0.2567
   5.500   0.6221   0.03131   0.01942  -0.0018  0.4331  1.0000  -1.9868   0.0000   0.0000   0.0000   0.2467
   6.000   0.6577   0.03306   0.02085   0.0029  0.3590  1.0000  -2.1777   0.0000   0.0000   0.0000   0.2391
   6.500   0.6937   0.03539   0.02292   0.0066  0.2964  1.0000  -2.3706   0.0000   0.0000   0.0000   0.2335
   7.000   0.7304   0.03831   0.02582   0.0096  0.2478  1.0000  -2.5527   0.0000   0.0000   0.0000   0.2294
   7.500   0.7663   0.04188   0.02957   0.0123  0.2120  1.0000  -2.7371   0.0000   0.0000   0.0000   0.2262
   8.000   0.7998   0.04601   0.03398   0.0148  0.1859  1.0000  -2.9075   0.0000   0.0000   0.0000   0.2233
   8.500   0.8246   0.05118   0.03963   0.0174  0.1675  1.0000  -3.0304   0.0000   0.0000   0.0000   0.2203
   9.000   0.8495   0.05647   0.04518   0.0197  0.1536  1.0000  -3.1682   0.0000   0.0000   0.0000   0.2177
   9.500   0.8430   0.06424   0.05365   0.0223  0.1454  1.0000  -3.1658   0.0000   0.0000   0.0000   0.2140
  10.000   0.8101   0.07419   0.06407   0.0234  0.1426  1.0000  -3.0441   0.0000   0.0000   0.0000   0.2112
  10.500   0.7524   0.08705   0.07705   0.0200  0.1434  1.0000  -2.7964   0.0000   0.0000   0.0000   0.2127
  11.500   0.6783   0.11828   0.10812   0.0020  0.1445  1.0000  -2.2877   0.0000   0.0000   0.0000   0.2355
  12.000   0.6659   0.12986   0.11961  -0.0035  0.1437  1.0000  -2.1585   0.0000   0.0000   0.0000   0.2432
  12.500   0.6513   0.14178   0.13146  -0.0100  0.1480  1.0000  -1.9903   0.0000   0.0000   0.0000   0.2529
  13.000   0.6525   0.15164   0.14129  -0.0142  0.1514  1.0000  -1.9150   0.0000   0.0000   0.0000   0.2589
  14.000   0.6478   0.17726   0.16698  -0.0302  0.2486  1.0000  -1.5650   0.0000   0.0000   0.0000   0.2831
  14.500   0.6518   0.18313   0.17282  -0.0333  0.2422  1.0000  -1.5412   0.0000   0.0000   0.0000   0.2869
  15.000   0.6640   0.18988   0.17957  -0.0358  0.2321  1.0000  -1.5503   0.0000   0.0000   0.0000   0.2891


