xflr5 v6.61

 Calculated polar for: NACA 0012

 1 1 Reynolds number fixed          Mach number fixed         

 xtrf =   1.000 (top)        1.000 (bottom)
 Mach =   0.000     Re =     0.130 e 6     Ncrit =   6.000

  alpha     CL        CD       CDp       Cm    Top Xtr Bot Xtr   Cpmin    Chinge    XCp    
 ------- -------- --------- --------- -------- ------- ------- -------- --------- ---------
 -14.500  -0.9480   0.08804   0.08269  -0.0201  1.0000  0.0355  -5.4668   0.0000   0.0000   0.0000   0.2104
 -14.000  -1.0053   0.07142   0.06561  -0.0311  1.0000  0.0353  -5.8246   0.0000   0.0000   0.0000   0.2018
 -13.500  -1.0505   0.05967   0.05329  -0.0366  1.0000  0.0355  -6.0306   0.0000   0.0000   0.0000   0.1990
 -13.000  -1.0718   0.05230   0.04550  -0.0369  1.0000  0.0360  -6.0328   0.0000   0.0000   0.0000   0.2003
 -12.500  -1.0720   0.04766   0.04064  -0.0351  1.0000  0.0371  -5.8672   0.0000   0.0000   0.0000   0.2028
 -12.000  -1.0733   0.04353   0.03615  -0.0315  1.0000  0.0388  -5.7099   0.0000   0.0000   0.0000   0.2070
 -11.500  -1.0714   0.03934   0.03132  -0.0267  1.0000  0.0410  -5.5678   0.0000   0.0000   0.0000   0.2121
 -11.000  -1.0449   0.03643   0.02830  -0.0242  1.0000  0.0433  -5.2543   0.0000   0.0000   0.0000   0.2146
 -10.500  -1.0180   0.03313   0.02451  -0.0212  1.0000  0.0464  -5.0111   0.0000   0.0000   0.0000   0.2175
 -10.000  -0.9847   0.03080   0.02211  -0.0189  1.0000  0.0503  -4.7000   0.0000   0.0000   0.0000   0.2198
  -9.500  -0.9496   0.02844   0.01960  -0.0165  1.0000  0.0547  -4.4027   0.0000   0.0000   0.0000   0.2222
  -9.000  -0.9132   0.02632   0.01733  -0.0140  1.0000  0.0602  -4.1030   0.0000   0.0000   0.0000   0.2247
  -8.500  -0.8762   0.02446   0.01539  -0.0115  1.0000  0.0672  -3.7993   0.0000   0.0000   0.0000   0.2275
  -8.000  -0.8387   0.02276   0.01362  -0.0089  1.0000  0.0762  -3.5159   0.0000   0.0000   0.0000   0.2306
  -7.500  -0.8015   0.02118   0.01205  -0.0061  1.0000  0.0877  -3.2456   0.0000   0.0000   0.0000   0.2341
  -7.000  -0.7642   0.01976   0.01065  -0.0032  1.0000  0.1036  -2.9772   0.0000   0.0000   0.0000   0.2380
  -6.500  -0.7263   0.01847   0.00943  -0.0003  1.0000  0.1265  -2.7135   0.0000   0.0000   0.0000   0.2422
  -6.000  -0.6881   0.01726   0.00837   0.0025  1.0000  0.1592  -2.4720   0.0000   0.0000   0.0000   0.2468
  -5.500  -0.6490   0.01619   0.00751   0.0052  1.0000  0.2055  -2.2319   0.0000   0.0000   0.0000   0.2516
  -5.000  -0.6094   0.01525   0.00681   0.0078  1.0000  0.2632  -2.0040   0.0000   0.0000   0.0000   0.2568
  -4.500  -0.5689   0.01446   0.00630   0.0104  1.0000  0.3273  -1.7890   0.0000   0.0000   0.0000   0.2626
  -4.000  -0.5274   0.01383   0.00592   0.0128  1.0000  0.3939  -1.5869   0.0000   0.0000   0.0000   0.2689
  -3.500  -0.4849   0.01333   0.00568   0.0150  1.0000  0.4608  -1.3972   0.0000   0.0000   0.0000   0.2760
  -3.000  -0.4413   0.01296   0.00556   0.0171  1.0000  0.5278  -1.2242   0.0000   0.0000   0.0000   0.2841
  -2.500  -0.3700   0.01265   0.00555   0.0137  0.9891  0.6030  -1.0275   0.0000   0.0000   0.0000   0.2826
  -2.000  -0.2921   0.01240   0.00555   0.0094  0.9736  0.6753  -0.8487   0.0000   0.0000   0.0000   0.2779
  -1.500  -0.2149   0.01221   0.00558   0.0057  0.9564  0.7401  -0.7006   0.0000   0.0000   0.0000   0.2723
  -1.000  -0.1407   0.01207   0.00561   0.0030  0.9363  0.7959  -0.5825   0.0000   0.0000   0.0000   0.2673
  -0.500  -0.0701   0.01200   0.00563   0.0014  0.9113  0.8426  -0.4893   0.0000   0.0000   0.0000   0.2655
   0.000  -0.0000   0.01199   0.00564   0.0000  0.8806  0.8806  -0.4127   0.0000   0.0000   0.0000   0.8786
   0.500   0.0701   0.01200   0.00563  -0.0014  0.8426  0.9113  -0.4893   0.0000   0.0000   0.0000   0.2655
   1.000   0.1407   0.01207   0.00561  -0.0030  0.7959  0.9363  -0.5825   0.0000   0.0000   0.0000   0.2673
   1.500   0.2149   0.01221   0.00558  -0.0057  0.7400  0.9564  -0.7006   0.0000   0.0000   0.0000   0.2723
   2.000   0.2920   0.01240   0.00555  -0.0094  0.6753  0.9736  -0.8487   0.0000   0.0000   0.0000   0.2779
   2.500   0.3700   0.01265   0.00555  -0.0137  0.6030  0.9891  -1.0275   0.0000   0.0000   0.0000   0.2826
   3.000   0.4413   0.01296   0.00556  -0.0170  0.5278  1.0000  -1.2241   0.0000   0.0000   0.0000   0.2841
   3.500   0.4848   0.01333   0.00568  -0.0150  0.4608  1.0000  -1.3971   0.0000   0.0000   0.0000   0.2760
   4.000   0.5274   0.01382   0.00592  -0.0127  0.3939  1.0000  -1.5867   0.0000   0.0000   0.0000   0.2689
   4.500   0.5689   0.01446   0.00630  -0.0104  0.3273  1.0000  -1.7889   0.0000   0.0000   0.0000   0.2625
   5.000   0.6094   0.01525   0.00681  -0.0078  0.2632  1.0000  -2.0039   0.0000   0.0000   0.0000   0.2568
   5.500   0.6490   0.01619   0.00751  -0.0052  0.2055  1.0000  -2.2318   0.0000   0.0000   0.0000   0.2516
   6.000   0.6881   0.01726   0.00837  -0.0025  0.1592  1.0000  -2.4719   0.0000   0.0000   0.0000   0.2467
   6.500   0.7263   0.01847   0.00943   0.0003  0.1266  1.0000  -2.7134   0.0000   0.0000   0.0000   0.2422
   7.000   0.7641   0.01976   0.01065   0.0032  0.1036  1.0000  -2.9772   0.0000   0.0000   0.0000   0.2380
   7.500   0.8015   0.02118   0.01204   0.0061  0.0877  1.0000  -3.2456   0.0000   0.0000   0.0000   0.2341
   8.000   0.8388   0.02276   0.01362   0.0089  0.0762  1.0000  -3.5160   0.0000   0.0000   0.0000   0.2306
   8.500   0.8762   0.02445   0.01539   0.0115  0.0672  1.0000  -3.7994   0.0000   0.0000   0.0000   0.2275
   9.000   0.9133   0.02632   0.01733   0.0140  0.0602  1.0000  -4.1033   0.0000   0.0000   0.0000   0.2247
   9.500   0.9497   0.02844   0.01960   0.0165  0.0547  1.0000  -4.4031   0.0000   0.0000   0.0000   0.2222
  10.000   0.9848   0.03080   0.02211   0.0189  0.0502  1.0000  -4.7004   0.0000   0.0000   0.0000   0.2198
  10.500   1.0182   0.03313   0.02451   0.0212  0.0464  1.0000  -5.0118   0.0000   0.0000   0.0000   0.2175
  11.000   1.0451   0.03643   0.02831   0.0242  0.0433  1.0000  -5.2552   0.0000   0.0000   0.0000   0.2146
  11.500   1.0718   0.03934   0.03132   0.0267  0.0410  1.0000  -5.5692   0.0000   0.0000   0.0000   0.2122
  12.000   1.0737   0.04354   0.03616   0.0314  0.0388  1.0000  -5.7114   0.0000   0.0000   0.0000   0.2071
  12.500   1.0726   0.04766   0.04064   0.0350  0.0371  1.0000  -5.8698   0.0000   0.0000   0.0000   0.2030
  13.000   1.0727   0.05230   0.04549   0.0368  0.0360  1.0000  -6.0369   0.0000   0.0000   0.0000   0.2004
  13.500   1.0509   0.05972   0.05335   0.0364  0.0354  1.0000  -6.0309   0.0000   0.0000   0.0000   0.1991
  14.000   1.0058   0.07151   0.06571   0.0309  0.0353  1.0000  -5.8239   0.0000   0.0000   0.0000   0.2020
  14.500   0.9483   0.08824   0.08290   0.0198  0.0355  1.0000  -5.4629   0.0000   0.0000   0.0000   0.2108


