xflr5 v6.61

 Calculated polar for: NACA 0012

 1 1 Reynolds number fixed          Mach number fixed         

 xtrf =   1.000 (top)        1.000 (bottom)
 Mach =   0.000     Re =     0.160 e 6     Ncrit =   6.000

  alpha     CL        CD       CDp       Cm    Top Xtr Bot Xtr   Cpmin    Chinge    XCp    
 ------- -------- --------- --------- -------- ------- ------- -------- --------- ---------
 -15.000  -0.9853   0.08768   0.08266  -0.0189  1.0000  0.0305  -5.9856   0.0000   0.0000   0.0000   0.2114
 -14.500  -1.0393   0.07125   0.06575  -0.0295  1.0000  0.0304  -6.3311   0.0000   0.0000   0.0000   0.2032
 -14.000  -1.0808   0.05929   0.05323  -0.0357  1.0000  0.0307  -6.5223   0.0000   0.0000   0.0000   0.1997
 -13.500  -1.0964   0.05198   0.04557  -0.0370  1.0000  0.0313  -6.4825   0.0000   0.0000   0.0000   0.2000
 -13.000  -1.0977   0.04695   0.04030  -0.0362  1.0000  0.0322  -6.3201   0.0000   0.0000   0.0000   0.2016
 -12.500  -1.0974   0.04247   0.03549  -0.0339  1.0000  0.0333  -6.1549   0.0000   0.0000   0.0000   0.2046
 -12.000  -1.0933   0.03846   0.03103  -0.0302  1.0000  0.0348  -5.9796   0.0000   0.0000   0.0000   0.2087
 -11.500  -1.0784   0.03539   0.02769  -0.0263  1.0000  0.0367  -5.7221   0.0000   0.0000   0.0000   0.2125
 -11.000  -1.0538   0.03287   0.02493  -0.0233  1.0000  0.0392  -5.4104   0.0000   0.0000   0.0000   0.2155
 -10.500  -1.0244   0.03019   0.02201  -0.0205  1.0000  0.0418  -5.1197   0.0000   0.0000   0.0000   0.2183
 -10.000  -0.9914   0.02801   0.01964  -0.0179  1.0000  0.0453  -4.8145   0.0000   0.0000   0.0000   0.2208
  -9.500  -0.9568   0.02604   0.01758  -0.0154  1.0000  0.0494  -4.4978   0.0000   0.0000   0.0000   0.2234
  -9.000  -0.9208   0.02415   0.01558  -0.0128  1.0000  0.0542  -4.1880   0.0000   0.0000   0.0000   0.2262
  -8.500  -0.8838   0.02251   0.01386  -0.0102  1.0000  0.0606  -3.8734   0.0000   0.0000   0.0000   0.2291
  -8.000  -0.8462   0.02101   0.01229  -0.0075  1.0000  0.0685  -3.5777   0.0000   0.0000   0.0000   0.2323
  -7.500  -0.8082   0.01964   0.01089  -0.0047  1.0000  0.0791  -3.2977   0.0000   0.0000   0.0000   0.2358
  -7.000  -0.7700   0.01839   0.00965  -0.0019  1.0000  0.0934  -3.0202   0.0000   0.0000   0.0000   0.2397
  -6.500  -0.7316   0.01722   0.00857   0.0009  1.0000  0.1132  -2.7466   0.0000   0.0000   0.0000   0.2439
  -6.000  -0.6923   0.01616   0.00762   0.0036  1.0000  0.1425  -2.4977   0.0000   0.0000   0.0000   0.2483
  -5.500  -0.6524   0.01519   0.00684   0.0062  1.0000  0.1838  -2.2525   0.0000   0.0000   0.0000   0.2530
  -5.000  -0.6121   0.01432   0.00620   0.0087  1.0000  0.2366  -2.0193   0.0000   0.0000   0.0000   0.2582
  -4.500  -0.5709   0.01359   0.00572   0.0111  1.0000  0.2970  -1.8013   0.0000   0.0000   0.0000   0.2637
  -4.000  -0.5287   0.01299   0.00536   0.0133  1.0000  0.3610  -1.5957   0.0000   0.0000   0.0000   0.2698
  -3.500  -0.4856   0.01250   0.00515   0.0153  1.0000  0.4261  -1.4035   0.0000   0.0000   0.0000   0.2765
  -3.000  -0.4107   0.01203   0.00498   0.0109  0.9888  0.5041  -1.1777   0.0000   0.0000   0.0000   0.2718
  -2.500  -0.3353   0.01162   0.00485   0.0068  0.9750  0.5783  -0.9798   0.0000   0.0000   0.0000   0.2656
  -2.000  -0.2610   0.01125   0.00474   0.0032  0.9597  0.6472  -0.8124   0.0000   0.0000   0.0000   0.2579
  -1.500  -0.1903   0.01092   0.00465   0.0008  0.9413  0.7096  -0.6767   0.0000   0.0000   0.0000   0.2500
  -1.000  -0.1243   0.01067   0.00459  -0.0002  0.9182  0.7653  -0.5695   0.0000   0.0000   0.0000   0.2439
  -0.500  -0.0606   0.01051   0.00453  -0.0005  0.8907  0.8145  -0.4832   0.0000   0.0000   0.0000   0.2373
   0.000   0.0000   0.01046   0.00453  -0.0000  0.8556  0.8556  -0.4133   0.0000   0.0000   0.0000   0.4847
   0.500   0.0606   0.01051   0.00453   0.0005  0.8145  0.8907  -0.4832   0.0000   0.0000   0.0000   0.2373
   1.000   0.1243   0.01067   0.00459   0.0002  0.7653  0.9182  -0.5695   0.0000   0.0000   0.0000   0.2439
   1.500   0.1903   0.01092   0.00465  -0.0008  0.7096  0.9413  -0.6767   0.0000   0.0000   0.0000   0.2500
   2.000   0.2609   0.01125   0.00474  -0.0032  0.6472  0.9597  -0.8123   0.0000   0.0000   0.0000   0.2579
   2.500   0.3353   0.01162   0.00485  -0.0068  0.5783  0.9751  -0.9798   0.0000   0.0000   0.0000   0.2656
   3.000   0.4107   0.01203   0.00497  -0.0109  0.5041  0.9889  -1.1777   0.0000   0.0000   0.0000   0.2718
   3.500   0.4856   0.01250   0.00515  -0.0153  0.4262  1.0000  -1.4034   0.0000   0.0000   0.0000   0.2765
   4.000   0.5287   0.01299   0.00536  -0.0132  0.3610  1.0000  -1.5956   0.0000   0.0000   0.0000   0.2698
   4.500   0.5708   0.01359   0.00572  -0.0111  0.2970  1.0000  -1.8012   0.0000   0.0000   0.0000   0.2637
   5.000   0.6120   0.01432   0.00620  -0.0087  0.2366  1.0000  -2.0192   0.0000   0.0000   0.0000   0.2582
   5.500   0.6524   0.01519   0.00684  -0.0062  0.1838  1.0000  -2.2524   0.0000   0.0000   0.0000   0.2530
   6.000   0.6922   0.01616   0.00762  -0.0036  0.1426  1.0000  -2.4975   0.0000   0.0000   0.0000   0.2483
   6.500   0.7316   0.01722   0.00857  -0.0009  0.1132  1.0000  -2.7465   0.0000   0.0000   0.0000   0.2439
   7.000   0.7700   0.01839   0.00965   0.0019  0.0934  1.0000  -3.0201   0.0000   0.0000   0.0000   0.2397
   7.500   0.8082   0.01963   0.01089   0.0048  0.0791  1.0000  -3.2976   0.0000   0.0000   0.0000   0.2358
   8.000   0.8462   0.02101   0.01229   0.0075  0.0685  1.0000  -3.5777   0.0000   0.0000   0.0000   0.2323
   8.500   0.8838   0.02251   0.01386   0.0102  0.0606  1.0000  -3.8736   0.0000   0.0000   0.0000   0.2291
   9.000   0.9209   0.02415   0.01557   0.0128  0.0542  1.0000  -4.1882   0.0000   0.0000   0.0000   0.2262
   9.500   0.9569   0.02604   0.01758   0.0154  0.0494  1.0000  -4.4982   0.0000   0.0000   0.0000   0.2234
  10.000   0.9915   0.02802   0.01964   0.0179  0.0453  1.0000  -4.8150   0.0000   0.0000   0.0000   0.2209
  10.500   1.0246   0.03019   0.02201   0.0205  0.0418  1.0000  -5.1204   0.0000   0.0000   0.0000   0.2183
  11.000   1.0541   0.03287   0.02493   0.0232  0.0392  1.0000  -5.4113   0.0000   0.0000   0.0000   0.2156
  11.500   1.0788   0.03539   0.02769   0.0263  0.0367  1.0000  -5.7237   0.0000   0.0000   0.0000   0.2126
  12.000   1.0937   0.03847   0.03104   0.0301  0.0348  1.0000  -5.9812   0.0000   0.0000   0.0000   0.2087
  12.500   1.0980   0.04248   0.03550   0.0338  0.0333  1.0000  -6.1571   0.0000   0.0000   0.0000   0.2047
  13.000   1.0984   0.04695   0.04030   0.0361  0.0321  1.0000  -6.3235   0.0000   0.0000   0.0000   0.2018
  13.500   1.0974   0.05197   0.04556   0.0369  0.0313  1.0000  -6.4877   0.0000   0.0000   0.0000   0.2001
  14.000   1.0813   0.05934   0.05329   0.0355  0.0307  1.0000  -6.5232   0.0000   0.0000   0.0000   0.1999
  14.500   1.0399   0.07134   0.06586   0.0293  0.0304  1.0000  -6.3309   0.0000   0.0000   0.0000   0.2035
  15.000   0.9858   0.08787   0.08286   0.0185  0.0305  1.0000  -5.9824   0.0000   0.0000   0.0000   0.2118


