xflr5 v6.61

 Calculated polar for: NACA 0012

 1 1 Reynolds number fixed          Mach number fixed         

 xtrf =   1.000 (top)        1.000 (bottom)
 Mach =   0.000     Re =     0.080 e 6     Ncrit =   6.000

  alpha     CL        CD       CDp       Cm    Top Xtr Bot Xtr   Cpmin    Chinge    XCp    
 ------- -------- --------- --------- -------- ------- ------- -------- --------- ---------
 -15.000  -0.6942   0.16980   0.16345   0.0240  1.0000  0.0633  -2.1547   0.0000   0.0000   0.0000   0.2688
 -14.500  -0.6889   0.16029   0.15394   0.0199  1.0000  0.0623  -2.2339   0.0000   0.0000   0.0000   0.2635
 -14.000  -0.6930   0.14818   0.14185   0.0142  1.0000  0.0598  -2.4196   0.0000   0.0000   0.0000   0.2554
 -13.500  -0.7249   0.12876   0.12251   0.0041  1.0000  0.0579  -2.9029   0.0000   0.0000   0.0000   0.2406
 -13.000  -0.7309   0.11829   0.11207  -0.0002  1.0000  0.0597  -2.9752   0.0000   0.0000   0.0000   0.2352
 -12.500  -0.9307   0.06945   0.06269  -0.0336  1.0000  0.0534  -4.6405   0.0000   0.0000   0.0000   0.1995
 -12.000  -0.9789   0.05961   0.05232  -0.0350  1.0000  0.0535  -4.8187   0.0000   0.0000   0.0000   0.2008
 -11.500  -1.0003   0.05357   0.04584  -0.0314  1.0000  0.0548  -4.8104   0.0000   0.0000   0.0000   0.2060
 -11.000  -1.0134   0.04762   0.03912  -0.0266  1.0000  0.0574  -4.7848   0.0000   0.0000   0.0000   0.2117
 -10.500  -0.9938   0.04352   0.03471  -0.0238  1.0000  0.0610  -4.5752   0.0000   0.0000   0.0000   0.2146
 -10.000  -0.9719   0.03888   0.02942  -0.0206  1.0000  0.0650  -4.4172   0.0000   0.0000   0.0000   0.2180
  -9.500  -0.9402   0.03562   0.02577  -0.0181  1.0000  0.0713  -4.1738   0.0000   0.0000   0.0000   0.2205
  -9.000  -0.9026   0.03263   0.02254  -0.0159  1.0000  0.0782  -3.9059   0.0000   0.0000   0.0000   0.2225
  -8.500  -0.8640   0.03012   0.02003  -0.0139  1.0000  0.0873  -3.6184   0.0000   0.0000   0.0000   0.2247
  -8.000  -0.8253   0.02782   0.01762  -0.0115  1.0000  0.0991  -3.3617   0.0000   0.0000   0.0000   0.2272
  -7.500  -0.7872   0.02574   0.01555  -0.0090  1.0000  0.1144  -3.1100   0.0000   0.0000   0.0000   0.2303
  -7.000  -0.7497   0.02386   0.01369  -0.0062  1.0000  0.1358  -2.8613   0.0000   0.0000   0.0000   0.2339
  -6.500  -0.7133   0.02213   0.01212  -0.0032  1.0000  0.1656  -2.6222   0.0000   0.0000   0.0000   0.2381
  -6.000  -0.6770   0.02056   0.01077  -0.0002  1.0000  0.2084  -2.3976   0.0000   0.0000   0.0000   0.2428
  -5.500  -0.6401   0.01921   0.00970   0.0029  1.0000  0.2659  -2.1718   0.0000   0.0000   0.0000   0.2480
  -5.000  -0.6022   0.01812   0.00886   0.0059  1.0000  0.3341  -1.9587   0.0000   0.0000   0.0000   0.2537
  -4.500  -0.5634   0.01723   0.00826   0.0089  1.0000  0.4052  -1.7513   0.0000   0.0000   0.0000   0.2602
  -4.000  -0.5234   0.01654   0.00782   0.0119  1.0000  0.4765  -1.5584   0.0000   0.0000   0.0000   0.2676
  -3.500  -0.4823   0.01601   0.00754   0.0149  1.0000  0.5466  -1.3759   0.0000   0.0000   0.0000   0.2761
  -3.000  -0.4405   0.01563   0.00737   0.0179  1.0000  0.6157  -1.2083   0.0000   0.0000   0.0000   0.2861
  -2.500  -0.3978   0.01542   0.00740   0.0209  1.0000  0.6826  -1.0564   0.0000   0.0000   0.0000   0.2984
  -2.000  -0.3548   0.01541   0.00756   0.0239  1.0000  0.7484  -0.9209   0.0000   0.0000   0.0000   0.3135
  -1.500  -0.3122   0.01562   0.00791   0.0270  1.0000  0.8131  -0.8018   0.0000   0.0000   0.0000   0.3330
  -1.000  -0.2236   0.01613   0.00845   0.0212  0.9835  0.8719  -0.6533   0.0000   0.0000   0.0000   0.3416
  -0.500  -0.1173   0.01658   0.00886   0.0117  0.9646  0.9155  -0.5212   0.0000   0.0000   0.0000   0.3472
   0.000  -0.0000   0.01677   0.00902   0.0000  0.9442  0.9442  -0.4105   0.0000   0.0000   0.0000   0.5376
   0.500   0.1173   0.01658   0.00886  -0.0117  0.9155  0.9646  -0.5212   0.0000   0.0000   0.0000   0.3472
   1.000   0.2236   0.01613   0.00845  -0.0212  0.8719  0.9835  -0.6533   0.0000   0.0000   0.0000   0.3416
   1.500   0.3122   0.01561   0.00791  -0.0269  0.8131  1.0000  -0.8018   0.0000   0.0000   0.0000   0.3330
   2.000   0.3548   0.01541   0.00756  -0.0239  0.7484  1.0000  -0.9209   0.0000   0.0000   0.0000   0.3135
   2.500   0.3978   0.01542   0.00740  -0.0209  0.6826  1.0000  -1.0564   0.0000   0.0000   0.0000   0.2984
   3.000   0.4404   0.01563   0.00737  -0.0179  0.6157  1.0000  -1.2082   0.0000   0.0000   0.0000   0.2861
   3.500   0.4823   0.01601   0.00753  -0.0149  0.5467  1.0000  -1.3758   0.0000   0.0000   0.0000   0.2761
   4.000   0.5233   0.01654   0.00782  -0.0119  0.4765  1.0000  -1.5582   0.0000   0.0000   0.0000   0.2676
   4.500   0.5634   0.01723   0.00826  -0.0089  0.4053  1.0000  -1.7512   0.0000   0.0000   0.0000   0.2602
   5.000   0.6022   0.01812   0.00886  -0.0059  0.3341  1.0000  -1.9586   0.0000   0.0000   0.0000   0.2537
   5.500   0.6401   0.01921   0.00970  -0.0029  0.2659  1.0000  -2.1717   0.0000   0.0000   0.0000   0.2480
   6.000   0.6769   0.02056   0.01077   0.0002  0.2084  1.0000  -2.3976   0.0000   0.0000   0.0000   0.2428
   6.500   0.7132   0.02213   0.01212   0.0033  0.1656  1.0000  -2.6221   0.0000   0.0000   0.0000   0.2381
   7.000   0.7497   0.02386   0.01369   0.0062  0.1358  1.0000  -2.8613   0.0000   0.0000   0.0000   0.2339
   7.500   0.7872   0.02574   0.01555   0.0090  0.1144  1.0000  -3.1100   0.0000   0.0000   0.0000   0.2303
   8.000   0.8253   0.02782   0.01762   0.0115  0.0991  1.0000  -3.3618   0.0000   0.0000   0.0000   0.2272
   8.500   0.8641   0.03012   0.02003   0.0139  0.0873  1.0000  -3.6186   0.0000   0.0000   0.0000   0.2247
   9.000   0.9026   0.03263   0.02254   0.0159  0.0782  1.0000  -3.9062   0.0000   0.0000   0.0000   0.2226
   9.500   0.9403   0.03562   0.02577   0.0180  0.0713  1.0000  -4.1742   0.0000   0.0000   0.0000   0.2205
  10.000   0.9720   0.03888   0.02942   0.0206  0.0650  1.0000  -4.4177   0.0000   0.0000   0.0000   0.2180
  10.500   0.9939   0.04352   0.03471   0.0238  0.0610  1.0000  -4.5757   0.0000   0.0000   0.0000   0.2147
  11.000   1.0135   0.04763   0.03914   0.0266  0.0574  1.0000  -4.7850   0.0000   0.0000   0.0000   0.2117
  11.500   1.0007   0.05358   0.04585   0.0313  0.0548  1.0000  -4.8115   0.0000   0.0000   0.0000   0.2061
  12.000   0.9795   0.05962   0.05233   0.0349  0.0535  1.0000  -4.8209   0.0000   0.0000   0.0000   0.2009
  12.500   0.9318   0.06943   0.06267   0.0335  0.0534  1.0000  -4.6451   0.0000   0.0000   0.0000   0.1997
  13.000   0.7906   0.10196   0.09577   0.0103  0.0572  1.0000  -3.6196   0.0000   0.0000   0.0000   0.2218
  14.000   0.6941   0.14829   0.14197  -0.0144  0.0598  1.0000  -2.4208   0.0000   0.0000   0.0000   0.2557
  14.500   0.6900   0.16044   0.15410  -0.0201  0.0623  1.0000  -2.2348   0.0000   0.0000   0.0000   0.2638
  15.000   0.6952   0.16999   0.16364  -0.0243  0.0633  1.0000  -2.1548   0.0000   0.0000   0.0000   0.2691


