xflr5 v6.61

 Calculated polar for: NACA 0012

 1 1 Reynolds number fixed          Mach number fixed         

 xtrf =   1.000 (top)        1.000 (bottom)
 Mach =   0.000     Re =     0.060 e 6     Ncrit =   6.000

  alpha     CL        CD       CDp       Cm    Top Xtr Bot Xtr   Cpmin    Chinge    XCp    
 ------- -------- --------- --------- -------- ------- ------- -------- --------- ---------
 -14.500  -0.6918   0.16314   0.15584   0.0186  1.0000  0.0781  -2.1918   0.0000   0.0000   0.0000   0.2617
 -14.000  -0.6845   0.15386   0.14656   0.0151  1.0000  0.0775  -2.2332   0.0000   0.0000   0.0000   0.2573
 -13.500  -0.6874   0.14290   0.13563   0.0100  1.0000  0.0775  -2.3546   0.0000   0.0000   0.0000   0.2502
 -13.000  -0.6930   0.13126   0.12401   0.0049  1.0000  0.0769  -2.4973   0.0000   0.0000   0.0000   0.2432
 -12.000  -0.8696   0.07626   0.06887  -0.0307  1.0000  0.0703  -3.9775   0.0000   0.0000   0.0000   0.2013
 -11.500  -0.9283   0.06508   0.05724  -0.0331  1.0000  0.0700  -4.2164   0.0000   0.0000   0.0000   0.2018
 -11.000  -0.9691   0.05709   0.04857  -0.0290  1.0000  0.0706  -4.3435   0.0000   0.0000   0.0000   0.2083
 -10.500  -0.9623   0.05154   0.04266  -0.0260  1.0000  0.0736  -4.2383   0.0000   0.0000   0.0000   0.2118
 -10.000  -0.9571   0.04585   0.03617  -0.0221  1.0000  0.0785  -4.1648   0.0000   0.0000   0.0000   0.2162
  -9.500  -0.9293   0.04149   0.03138  -0.0195  1.0000  0.0844  -3.9701   0.0000   0.0000   0.0000   0.2188
  -9.000  -0.8981   0.03768   0.02709  -0.0169  1.0000  0.0930  -3.7575   0.0000   0.0000   0.0000   0.2215
  -8.500  -0.8590   0.03452   0.02386  -0.0150  1.0000  0.1030  -3.4944   0.0000   0.0000   0.0000   0.2234
  -8.000  -0.8201   0.03166   0.02072  -0.0127  1.0000  0.1173  -3.2652   0.0000   0.0000   0.0000   0.2258
  -7.500  -0.7805   0.02919   0.01828  -0.0104  1.0000  0.1356  -3.0230   0.0000   0.0000   0.0000   0.2284
  -7.000  -0.7420   0.02699   0.01615  -0.0079  1.0000  0.1607  -2.7815   0.0000   0.0000   0.0000   0.2316
  -6.500  -0.7048   0.02497   0.01430  -0.0050  1.0000  0.1962  -2.5564   0.0000   0.0000   0.0000   0.2355
  -6.000  -0.6688   0.02318   0.01274  -0.0019  1.0000  0.2458  -2.3408   0.0000   0.0000   0.0000   0.2402
  -5.500  -0.6330   0.02168   0.01153   0.0014  1.0000  0.3101  -2.1240   0.0000   0.0000   0.0000   0.2457
  -5.000  -0.5967   0.02048   0.01064   0.0048  1.0000  0.3817  -1.9217   0.0000   0.0000   0.0000   0.2521
  -4.000  -0.5196   0.01885   0.00950   0.0119  1.0000  0.5299  -1.5330   0.0000   0.0000   0.0000   0.2677
  -3.500  -0.4790   0.01833   0.00920   0.0154  1.0000  0.6015  -1.3550   0.0000   0.0000   0.0000   0.2774
  -3.000  -0.4377   0.01801   0.00906   0.0191  1.0000  0.6703  -1.1909   0.0000   0.0000   0.0000   0.2892
  -2.500  -0.3961   0.01789   0.00911   0.0230  1.0000  0.7365  -1.0427   0.0000   0.0000   0.0000   0.3040
  -2.000  -0.3525   0.01798   0.00929   0.0265  1.0000  0.8014  -0.9079   0.0000   0.0000   0.0000   0.3215
  -1.500  -0.2984   0.01834   0.00967   0.0280  1.0000  0.8628  -0.7775   0.0000   0.0000   0.0000   0.3403
  -1.000  -0.2230   0.01886   0.01012   0.0246  1.0000  0.9180  -0.6466   0.0000   0.0000   0.0000   0.3570
  -0.500  -0.1205   0.01935   0.01050   0.0147  1.0000  0.9619  -0.5200   0.0000   0.0000   0.0000   0.3688
   0.000   0.0000   0.01956   0.01069  -0.0000  0.9961  0.9961  -0.4091   0.0000   0.0000   0.0000   0.3679
   0.500   0.1205   0.01935   0.01050  -0.0147  0.9619  1.0000  -0.5200   0.0000   0.0000   0.0000   0.3688
   1.000   0.2229   0.01886   0.01011  -0.0246  0.9180  1.0000  -0.6466   0.0000   0.0000   0.0000   0.3570
   1.500   0.2984   0.01834   0.00967  -0.0280  0.8628  1.0000  -0.7774   0.0000   0.0000   0.0000   0.3403
   2.000   0.3525   0.01798   0.00929  -0.0265  0.8014  1.0000  -0.9078   0.0000   0.0000   0.0000   0.3215
   2.500   0.3961   0.01789   0.00911  -0.0230  0.7365  1.0000  -1.0426   0.0000   0.0000   0.0000   0.3040
   3.000   0.4376   0.01801   0.00906  -0.0191  0.6703  1.0000  -1.1909   0.0000   0.0000   0.0000   0.2892
   3.500   0.4789   0.01833   0.00920  -0.0154  0.6015  1.0000  -1.3549   0.0000   0.0000   0.0000   0.2774
   4.000   0.5195   0.01885   0.00950  -0.0119  0.5299  1.0000  -1.5329   0.0000   0.0000   0.0000   0.2677
   4.500   0.5588   0.01956   0.00997  -0.0083  0.4569  1.0000  -1.7198   0.0000   0.0000   0.0000   0.2593
   5.000   0.5966   0.02048   0.01064  -0.0048  0.3817  1.0000  -1.9216   0.0000   0.0000   0.0000   0.2521
   5.500   0.6330   0.02168   0.01153  -0.0014  0.3101  1.0000  -2.1239   0.0000   0.0000   0.0000   0.2457
   6.000   0.6688   0.02318   0.01274   0.0019  0.2458  1.0000  -2.3407   0.0000   0.0000   0.0000   0.2402
   6.500   0.7048   0.02497   0.01430   0.0050  0.1962  1.0000  -2.5564   0.0000   0.0000   0.0000   0.2355
   7.000   0.7421   0.02698   0.01615   0.0079  0.1607  1.0000  -2.7815   0.0000   0.0000   0.0000   0.2316
   7.500   0.7805   0.02919   0.01828   0.0104  0.1356  1.0000  -3.0231   0.0000   0.0000   0.0000   0.2284
   8.000   0.8202   0.03165   0.02072   0.0127  0.1173  1.0000  -3.2653   0.0000   0.0000   0.0000   0.2258
   8.500   0.8591   0.03452   0.02386   0.0150  0.1030  1.0000  -3.4946   0.0000   0.0000   0.0000   0.2234
   9.000   0.8982   0.03768   0.02710   0.0169  0.0930  1.0000  -3.7576   0.0000   0.0000   0.0000   0.2215
   9.500   0.9294   0.04150   0.03139   0.0195  0.0844  1.0000  -3.9703   0.0000   0.0000   0.0000   0.2188
  10.000   0.9573   0.04585   0.03617   0.0221  0.0785  1.0000  -4.1654   0.0000   0.0000   0.0000   0.2163
  10.500   0.9626   0.05155   0.04266   0.0260  0.0736  1.0000  -4.2390   0.0000   0.0000   0.0000   0.2118
  11.000   0.9693   0.05710   0.04859   0.0289  0.0706  1.0000  -4.3436   0.0000   0.0000   0.0000   0.2084
  11.500   0.9285   0.06511   0.05728   0.0331  0.0699  1.0000  -4.2163   0.0000   0.0000   0.0000   0.2019
  12.000   0.8698   0.07634   0.06895   0.0305  0.0703  1.0000  -3.9765   0.0000   0.0000   0.0000   0.2015
  13.500   0.6883   0.14303   0.13575  -0.0102  0.0775  1.0000  -2.3547   0.0000   0.0000   0.0000   0.2505
  14.000   0.6854   0.15402   0.14671  -0.0153  0.0774  1.0000  -2.2330   0.0000   0.0000   0.0000   0.2576
  14.500   0.6930   0.16327   0.15596  -0.0188  0.0781  1.0000  -2.1943   0.0000   0.0000   0.0000   0.2619
  15.000   0.6765   0.18120   0.17391  -0.0298  0.1242  1.0000  -1.7345   0.0000   0.0000   0.0000   0.2789


