xflr5 v6.61

 Calculated polar for: NACA 0012

 1 1 Reynolds number fixed          Mach number fixed         

 xtrf =   1.000 (top)        1.000 (bottom)
 Mach =   0.000     Re =     3.000 e 6     Ncrit =   6.000

  alpha     CL        CD       CDp       Cm    Top Xtr Bot Xtr   Cpmin    Chinge    XCp    
 ------- -------- --------- --------- -------- ------- ------- -------- --------- ---------
 -15.000  -1.5535   0.01909   0.01435  -0.0157  1.0000  0.0089  -11.1134   0.0000   0.0000   0.0000   0.2209
 -14.500  -1.5167   0.01807   0.01327  -0.0134  1.0000  0.0091  -10.5514   0.0000   0.0000   0.0000   0.2231
 -14.000  -1.4774   0.01706   0.01219  -0.0114  1.0000  0.0094  -9.9904   0.0000   0.0000   0.0000   0.2251
 -13.500  -1.4364   0.01607   0.01116  -0.0095  1.0000  0.0102  -9.4333   0.0000   0.0000   0.0000   0.2270
 -13.000  -1.3930   0.01521   0.01026  -0.0080  1.0000  0.0108  -8.8708   0.0000   0.0000   0.0000   0.2287
 -12.500  -1.3476   0.01444   0.00946  -0.0067  1.0000  0.0114  -8.3117   0.0000   0.0000   0.0000   0.2304
 -12.000  -1.3009   0.01376   0.00874  -0.0054  1.0000  0.0118  -7.7600   0.0000   0.0000   0.0000   0.2319
 -11.500  -1.2542   0.01306   0.00802  -0.0041  1.0000  0.0127  -7.2262   0.0000   0.0000   0.0000   0.2335
 -11.000  -1.2077   0.01240   0.00735  -0.0027  1.0000  0.0139  -6.7077   0.0000   0.0000   0.0000   0.2353
 -10.500  -1.1617   0.01184   0.00678  -0.0010  1.0000  0.0147  -6.2119   0.0000   0.0000   0.0000   0.2373
 -10.000  -1.1170   0.01132   0.00624   0.0010  1.0000  0.0157  -5.7649   0.0000   0.0000   0.0000   0.2398
  -9.500  -1.0588   0.01074   0.00567   0.0000  0.9984  0.0175  -5.2741   0.0000   0.0000   0.0000   0.2396
  -9.000  -0.9974   0.01023   0.00516  -0.0015  0.9962  0.0189  -4.7878   0.0000   0.0000   0.0000   0.2386
  -8.500  -0.9361   0.00970   0.00466  -0.0030  0.9931  0.0217  -4.3206   0.0000   0.0000   0.0000   0.2375
  -8.000  -0.8769   0.00924   0.00422  -0.0040  0.9867  0.0245  -3.8835   0.0000   0.0000   0.0000   0.2367
  -7.500  -0.8207   0.00883   0.00383  -0.0041  0.9757  0.0275  -3.5008   0.0000   0.0000   0.0000   0.2367
  -7.000  -0.7675   0.00845   0.00345  -0.0036  0.9598  0.0320  -3.1424   0.0000   0.0000   0.0000   0.2376
  -6.500  -0.7150   0.00812   0.00311  -0.0028  0.9387  0.0371  -2.8004   0.0000   0.0000   0.0000   0.2388
  -6.000  -0.6621   0.00781   0.00278  -0.0021  0.9128  0.0443  -2.4911   0.0000   0.0000   0.0000   0.2399
  -5.500  -0.6082   0.00755   0.00248  -0.0016  0.8816  0.0529  -2.1964   0.0000   0.0000   0.0000   0.2408
  -5.000  -0.5540   0.00730   0.00219  -0.0012  0.8458  0.0656  -1.9251   0.0000   0.0000   0.0000   0.2417
  -4.500  -0.4994   0.00707   0.00194  -0.0009  0.8060  0.0817  -1.6742   0.0000   0.0000   0.0000   0.2424
  -4.000  -0.4445   0.00687   0.00170  -0.0006  0.7636  0.1025  -1.4494   0.0000   0.0000   0.0000   0.2430
  -3.500  -0.3895   0.00666   0.00149  -0.0004  0.7198  0.1298  -1.2457   0.0000   0.0000   0.0000   0.2436
  -3.000  -0.3343   0.00648   0.00131  -0.0003  0.6755  0.1623  -1.0642   0.0000   0.0000   0.0000   0.2441
  -2.500  -0.2790   0.00630   0.00115  -0.0002  0.6314  0.1997  -0.9056   0.0000   0.0000   0.0000   0.2445
  -2.000  -0.2234   0.00615   0.00103  -0.0001  0.5877  0.2402  -0.7691   0.0000   0.0000   0.0000   0.2449
  -1.500  -0.1678   0.00603   0.00093  -0.0000  0.5444  0.2833  -0.6541   0.0000   0.0000   0.0000   0.2451
  -1.000  -0.1119   0.00594   0.00087  -0.0000  0.5014  0.3273  -0.5585   0.0000   0.0000   0.0000   0.2454
  -0.500  -0.0560   0.00589   0.00083   0.0000  0.4582  0.3716  -0.4793   0.0000   0.0000   0.0000   0.2455
   0.000   0.0000   0.00588   0.00081  -0.0000  0.4150  0.4150  -0.4130   0.0000   0.0000   0.0000   0.4640
   0.500   0.0560   0.00589   0.00083  -0.0000  0.3716  0.4583  -0.4793   0.0000   0.0000   0.0000   0.2455
   1.000   0.1119   0.00594   0.00087   0.0000  0.3273  0.5014  -0.5585   0.0000   0.0000   0.0000   0.2454
   1.500   0.1678   0.00603   0.00093   0.0000  0.2833  0.5444  -0.6541   0.0000   0.0000   0.0000   0.2452
   2.000   0.2235   0.00615   0.00103   0.0001  0.2402  0.5877  -0.7691   0.0000   0.0000   0.0000   0.2449
   2.500   0.2790   0.00630   0.00116   0.0002  0.1997  0.6314  -0.9056   0.0000   0.0000   0.0000   0.2445
   3.000   0.3343   0.00648   0.00131   0.0003  0.1623  0.6755  -1.0642   0.0000   0.0000   0.0000   0.2441
   3.500   0.3896   0.00666   0.00149   0.0004  0.1298  0.7198  -1.2457   0.0000   0.0000   0.0000   0.2436
   4.000   0.4445   0.00687   0.00170   0.0006  0.1025  0.7636  -1.4494   0.0000   0.0000   0.0000   0.2430
   4.500   0.4994   0.00707   0.00194   0.0009  0.0817  0.8060  -1.6742   0.0000   0.0000   0.0000   0.2424
   5.000   0.5540   0.00730   0.00219   0.0012  0.0656  0.8458  -1.9252   0.0000   0.0000   0.0000   0.2417
   5.500   0.6082   0.00755   0.00248   0.0016  0.0529  0.8816  -2.1965   0.0000   0.0000   0.0000   0.2409
   6.000   0.6621   0.00781   0.00278   0.0021  0.0443  0.9128  -2.4912   0.0000   0.0000   0.0000   0.2400
   6.500   0.7151   0.00812   0.00311   0.0028  0.0371  0.9387  -2.8005   0.0000   0.0000   0.0000   0.2388
   7.000   0.7676   0.00845   0.00345   0.0035  0.0320  0.9598  -3.1425   0.0000   0.0000   0.0000   0.2376
   7.500   0.8207   0.00883   0.00383   0.0041  0.0275  0.9757  -3.5010   0.0000   0.0000   0.0000   0.2367
   8.000   0.8769   0.00924   0.00422   0.0039  0.0245  0.9867  -3.8836   0.0000   0.0000   0.0000   0.2368
   8.500   0.9361   0.00970   0.00466   0.0030  0.0217  0.9931  -4.3208   0.0000   0.0000   0.0000   0.2375
   9.000   0.9974   0.01023   0.00516   0.0015  0.0189  0.9963  -4.7881   0.0000   0.0000   0.0000   0.2387
   9.500   1.0588   0.01074   0.00567  -0.0001  0.0175  0.9984  -5.2744   0.0000   0.0000   0.0000   0.2396
  10.000   1.1169   0.01132   0.00624  -0.0010  0.0157  1.0000  -5.7646   0.0000   0.0000   0.0000   0.2398
  10.500   1.1617   0.01184   0.00678   0.0010  0.0147  1.0000  -6.2118   0.0000   0.0000   0.0000   0.2373
  11.000   1.2078   0.01240   0.00735   0.0027  0.0139  1.0000  -6.7079   0.0000   0.0000   0.0000   0.2353
  11.500   1.2543   0.01306   0.00802   0.0041  0.0127  1.0000  -7.2266   0.0000   0.0000   0.0000   0.2335
  12.000   1.3010   0.01376   0.00874   0.0054  0.0118  1.0000  -7.7605   0.0000   0.0000   0.0000   0.2319
  12.500   1.3478   0.01444   0.00946   0.0066  0.0114  1.0000  -8.3124   0.0000   0.0000   0.0000   0.2304
  13.000   1.3931   0.01521   0.01026   0.0080  0.0108  1.0000  -8.8718   0.0000   0.0000   0.0000   0.2288
  13.500   1.4367   0.01607   0.01116   0.0095  0.0102  1.0000  -9.4345   0.0000   0.0000   0.0000   0.2270
  14.000   1.4777   0.01707   0.01220   0.0113  0.0094  1.0000  -9.9919   0.0000   0.0000   0.0000   0.2251
  14.500   1.5170   0.01807   0.01327   0.0133  0.0091  1.0000  -10.5534   0.0000   0.0000   0.0000   0.2231
  15.000   1.5540   0.01909   0.01435   0.0156  0.0089  1.0000  -11.1162   0.0000   0.0000   0.0000   0.2210


