xflr5 v6.61

 Calculated polar for: NACA 0012

 1 1 Reynolds number fixed          Mach number fixed         

 xtrf =   1.000 (top)        1.000 (bottom)
 Mach =   0.000     Re =     0.040 e 6     Ncrit =   6.000

  alpha     CL        CD       CDp       Cm    Top Xtr Bot Xtr   Cpmin    Chinge    XCp    
 ------- -------- --------- --------- -------- ------- ------- -------- --------- ---------
 -15.000  -0.4589   0.16059   0.15240   0.0085  1.0000  0.1902  -1.1424   0.0000   0.0000   0.0000   0.2582
 -13.500  -0.6648   0.15429   0.14533   0.0148  1.0000  0.1160  -1.9999   0.0000   0.0000   0.0000   0.2586
 -13.000  -0.6616   0.14454   0.13559   0.0108  1.0000  0.1141  -2.0749   0.0000   0.0000   0.0000   0.2531
 -12.500  -0.6822   0.13045   0.12159   0.0027  1.0000  0.1089  -2.3323   0.0000   0.0000   0.0000   0.2411
 -12.000  -0.6915   0.11871   0.10992  -0.0024  1.0000  0.1095  -2.4621   0.0000   0.0000   0.0000   0.2339
 -11.500  -0.7320   0.10008   0.09140  -0.0136  1.0000  0.1086  -2.8188   0.0000   0.0000   0.0000   0.2193
 -11.000  -0.7942   0.08119   0.07247  -0.0254  1.0000  0.1066  -3.2079   0.0000   0.0000   0.0000   0.2064
 -10.500  -0.8621   0.06863   0.05959  -0.0278  1.0000  0.1051  -3.4924   0.0000   0.0000   0.0000   0.2069
 -10.000  -0.8976   0.05962   0.04991  -0.0250  1.0000  0.1076  -3.6169   0.0000   0.0000   0.0000   0.2118
  -9.500  -0.8908   0.05321   0.04302  -0.0222  1.0000  0.1133  -3.5443   0.0000   0.0000   0.0000   0.2153
  -9.000  -0.8744   0.04764   0.03687  -0.0193  1.0000  0.1224  -3.4272   0.0000   0.0000   0.0000   0.2186
  -8.500  -0.8489   0.04265   0.03122  -0.0164  1.0000  0.1345  -3.2796   0.0000   0.0000   0.0000   0.2217
  -8.000  -0.8123   0.03892   0.02730  -0.0142  1.0000  0.1513  -3.0827   0.0000   0.0000   0.0000   0.2240
  -7.500  -0.7740   0.03555   0.02371  -0.0119  1.0000  0.1744  -2.8785   0.0000   0.0000   0.0000   0.2266
  -7.000  -0.7347   0.03271   0.02086  -0.0095  1.0000  0.2060  -2.6588   0.0000   0.0000   0.0000   0.2294
  -6.500  -0.6966   0.03021   0.01847  -0.0068  1.0000  0.2499  -2.4560   0.0000   0.0000   0.0000   0.2331
  -6.000  -0.6604   0.02811   0.01661  -0.0035  1.0000  0.3080  -2.2521   0.0000   0.0000   0.0000   0.2379
  -5.500  -0.6252   0.02642   0.01527   0.0003  1.0000  0.3785  -2.0504   0.0000   0.0000   0.0000   0.2442
  -5.000  -0.5901   0.02513   0.01423   0.0046  1.0000  0.4565  -1.8593   0.0000   0.0000   0.0000   0.2520
  -4.500  -0.5529   0.02424   0.01364   0.0093  1.0000  0.5332  -1.6663   0.0000   0.0000   0.0000   0.2613
  -4.000  -0.5147   0.02363   0.01321   0.0142  1.0000  0.6079  -1.4858   0.0000   0.0000   0.0000   0.2726
  -3.500  -0.4739   0.02328   0.01300   0.0191  1.0000  0.6793  -1.3134   0.0000   0.0000   0.0000   0.2856
  -3.000  -0.4290   0.02319   0.01292   0.0235  1.0000  0.7478  -1.1485   0.0000   0.0000   0.0000   0.3003
  -2.500  -0.3741   0.02333   0.01300   0.0260  1.0000  0.8130  -0.9859   0.0000   0.0000   0.0000   0.3152
  -2.000  -0.2939   0.02368   0.01315   0.0232  1.0000  0.8726  -0.8128   0.0000   0.0000   0.0000   0.3249
  -1.500  -0.1857   0.02382   0.01300   0.0136  1.0000  0.9260  -0.6427   0.0000   0.0000   0.0000   0.3189
  -1.000  -0.0647   0.02340   0.01238  -0.0002  1.0000  0.9728  -0.5008   0.0000   0.0000   0.0000   0.2391
  -0.500   0.0143   0.02267   0.01162  -0.0082  1.0000  1.0000  -0.4191   0.0000   0.0000   0.0000   0.8396
   0.000  -0.0000   0.02247   0.01145   0.0000  1.0000  1.0000  -0.4092   0.0000   0.0000   0.0000   0.4082
   0.500  -0.0143   0.02267   0.01162   0.0082  1.0000  1.0000  -0.4191   0.0000   0.0000   0.0000   0.8397
   1.000   0.0647   0.02340   0.01238   0.0002  0.9728  1.0000  -0.5007   0.0000   0.0000   0.0000   0.2390
   1.500   0.1857   0.02382   0.01300  -0.0136  0.9261  1.0000  -0.6427   0.0000   0.0000   0.0000   0.3189
   2.000   0.2938   0.02368   0.01314  -0.0232  0.8726  1.0000  -0.8128   0.0000   0.0000   0.0000   0.3249
   2.500   0.3741   0.02333   0.01300  -0.0260  0.8131  1.0000  -0.9858   0.0000   0.0000   0.0000   0.3152
   3.000   0.4290   0.02318   0.01292  -0.0235  0.7477  1.0000  -1.1485   0.0000   0.0000   0.0000   0.3003
   3.500   0.4739   0.02328   0.01300  -0.0191  0.6793  1.0000  -1.3133   0.0000   0.0000   0.0000   0.2856
   4.000   0.5147   0.02362   0.01321  -0.0142  0.6079  1.0000  -1.4858   0.0000   0.0000   0.0000   0.2726
   4.500   0.5529   0.02423   0.01364  -0.0093  0.5332  1.0000  -1.6662   0.0000   0.0000   0.0000   0.2613
   5.000   0.5900   0.02513   0.01423  -0.0046  0.4565  1.0000  -1.8592   0.0000   0.0000   0.0000   0.2520
   5.500   0.6252   0.02642   0.01527  -0.0003  0.3785  1.0000  -2.0503   0.0000   0.0000   0.0000   0.2442
   6.000   0.6603   0.02811   0.01661   0.0035  0.3081  1.0000  -2.2520   0.0000   0.0000   0.0000   0.2379
   6.500   0.6966   0.03021   0.01847   0.0068  0.2499  1.0000  -2.4560   0.0000   0.0000   0.0000   0.2331
   7.000   0.7347   0.03271   0.02086   0.0095  0.2060  1.0000  -2.6588   0.0000   0.0000   0.0000   0.2294
   7.500   0.7741   0.03555   0.02371   0.0119  0.1744  1.0000  -2.8786   0.0000   0.0000   0.0000   0.2266
   8.000   0.8123   0.03892   0.02730   0.0142  0.1513  1.0000  -3.0828   0.0000   0.0000   0.0000   0.2240
   8.500   0.8490   0.04265   0.03122   0.0164  0.1345  1.0000  -3.2797   0.0000   0.0000   0.0000   0.2217
   9.000   0.8745   0.04764   0.03688   0.0192  0.1224  1.0000  -3.4274   0.0000   0.0000   0.0000   0.2186
   9.500   0.8909   0.05322   0.04302   0.0222  0.1133  1.0000  -3.5446   0.0000   0.0000   0.0000   0.2153
  10.000   0.8977   0.05963   0.04992   0.0250  0.1075  1.0000  -3.6170   0.0000   0.0000   0.0000   0.2119
  10.500   0.8624   0.06865   0.05961   0.0277  0.1051  1.0000  -3.4929   0.0000   0.0000   0.0000   0.2070
  11.000   0.7944   0.08125   0.07253   0.0253  0.1066  1.0000  -3.2073   0.0000   0.0000   0.0000   0.2065
  11.500   0.7323   0.10021   0.09153   0.0133  0.1086  1.0000  -2.8169   0.0000   0.0000   0.0000   0.2196
  12.000   0.6905   0.11916   0.11036   0.0019  0.1097  1.0000  -2.4480   0.0000   0.0000   0.0000   0.2347
  12.500   0.6830   0.13055   0.12168  -0.0029  0.1089  1.0000  -2.3326   0.0000   0.0000   0.0000   0.2414
  13.000   0.6626   0.14463   0.13568  -0.0110  0.1141  1.0000  -2.0758   0.0000   0.0000   0.0000   0.2534
  13.500   0.6657   0.15440   0.14544  -0.0150  0.1159  1.0000  -2.0004   0.0000   0.0000   0.0000   0.2589
  15.000   0.4575   0.16016   0.15196  -0.0083  0.1904  1.0000  -1.1394   0.0000   0.0000   0.0000   0.2579


