xflr5 v6.61

 Calculated polar for: NACA 0012

 1 1 Reynolds number fixed          Mach number fixed         

 xtrf =   1.000 (top)        1.000 (bottom)
 Mach =   0.000     Re =     0.200 e 6     Ncrit =   6.000

  alpha     CL        CD       CDp       Cm    Top Xtr Bot Xtr   Cpmin    Chinge    XCp    
 ------- -------- --------- --------- -------- ------- ------- -------- --------- ---------
 -15.000  -1.0810   0.07042   0.06516  -0.0275  1.0000  0.0258  -6.9379   0.0000   0.0000   0.0000   0.2051
 -14.500  -1.1139   0.05898   0.05320  -0.0336  1.0000  0.0262  -7.0707   0.0000   0.0000   0.0000   0.2015
 -14.000  -1.1267   0.05151   0.04541  -0.0358  1.0000  0.0268  -7.0062   0.0000   0.0000   0.0000   0.2009
 -13.500  -1.1255   0.04646   0.04019  -0.0361  1.0000  0.0277  -6.8093   0.0000   0.0000   0.0000   0.2016
 -13.000  -1.1245   0.04184   0.03528  -0.0350  1.0000  0.0288  -6.6235   0.0000   0.0000   0.0000   0.2034
 -12.500  -1.1201   0.03774   0.03076  -0.0324  1.0000  0.0300  -6.4327   0.0000   0.0000   0.0000   0.2064
 -12.000  -1.1078   0.03435   0.02705  -0.0290  1.0000  0.0313  -6.1911   0.0000   0.0000   0.0000   0.2099
 -11.500  -1.0889   0.03189   0.02450  -0.0254  1.0000  0.0328  -5.8832   0.0000   0.0000   0.0000   0.2135
 -11.000  -1.0643   0.02961   0.02189  -0.0221  1.0000  0.0353  -5.5693   0.0000   0.0000   0.0000   0.2169
 -10.500  -1.0349   0.02748   0.01970  -0.0192  1.0000  0.0377  -5.2431   0.0000   0.0000   0.0000   0.2197
 -10.000  -1.0012   0.02554   0.01749  -0.0165  1.0000  0.0408  -4.9323   0.0000   0.0000   0.0000   0.2224
  -9.500  -0.9670   0.02375   0.01568  -0.0139  1.0000  0.0443  -4.6025   0.0000   0.0000   0.0000   0.2252
  -9.000  -0.9305   0.02215   0.01398  -0.0113  1.0000  0.0489  -4.2746   0.0000   0.0000   0.0000   0.2280
  -8.500  -0.8931   0.02067   0.01242  -0.0086  1.0000  0.0543  -3.9515   0.0000   0.0000   0.0000   0.2310
  -8.000  -0.8546   0.01937   0.01106  -0.0060  1.0000  0.0616  -3.6397   0.0000   0.0000   0.0000   0.2341
  -7.500  -0.8155   0.01819   0.00983  -0.0033  1.0000  0.0710  -3.3496   0.0000   0.0000   0.0000   0.2376
  -7.000  -0.7768   0.01706   0.00874  -0.0005  1.0000  0.0835  -3.0633   0.0000   0.0000   0.0000   0.2415
  -6.500  -0.7370   0.01606   0.00778   0.0022  1.0000  0.1012  -2.7809   0.0000   0.0000   0.0000   0.2456
  -6.000  -0.6970   0.01512   0.00694   0.0048  1.0000  0.1267  -2.5236   0.0000   0.0000   0.0000   0.2500
  -5.500  -0.6565   0.01425   0.00624   0.0073  1.0000  0.1629  -2.2738   0.0000   0.0000   0.0000   0.2547
  -5.000  -0.6155   0.01346   0.00566   0.0097  1.0000  0.2099  -2.0353   0.0000   0.0000   0.0000   0.2598
  -4.500  -0.5736   0.01278   0.00522   0.0119  1.0000  0.2656  -1.8144   0.0000   0.0000   0.0000   0.2652
  -4.000  -0.5262   0.01219   0.00488   0.0130  0.9987  0.3287  -1.5961   0.0000   0.0000   0.0000   0.2694
  -3.500  -0.4515   0.01159   0.00459   0.0085  0.9886  0.4059  -1.3460   0.0000   0.0000   0.0000   0.2638
  -3.000  -0.3782   0.01106   0.00434   0.0046  0.9765  0.4803  -1.1284   0.0000   0.0000   0.0000   0.2572
  -2.500  -0.3038   0.01058   0.00413   0.0007  0.9643  0.5514  -0.9373   0.0000   0.0000   0.0000   0.2476
  -2.000  -0.2361   0.01014   0.00395  -0.0014  0.9469  0.6164  -0.7839   0.0000   0.0000   0.0000   0.2393
  -1.500  -0.1720   0.00976   0.00380  -0.0025  0.9257  0.6765  -0.6593   0.0000   0.0000   0.0000   0.2310
  -1.000  -0.1123   0.00947   0.00369  -0.0023  0.8988  0.7320  -0.5600   0.0000   0.0000   0.0000   0.2245
  -0.500  -0.0549   0.00926   0.00361  -0.0015  0.8667  0.7825  -0.4796   0.0000   0.0000   0.0000   0.2184
   0.000   0.0000   0.00919   0.00358  -0.0000  0.8278  0.8278  -0.4137   0.0000   0.0000   0.0000   0.5084
   0.500   0.0549   0.00926   0.00361   0.0015  0.7825  0.8667  -0.4796   0.0000   0.0000   0.0000   0.2184
   1.000   0.1123   0.00947   0.00369   0.0024  0.7320  0.8988  -0.5600   0.0000   0.0000   0.0000   0.2244
   1.500   0.1720   0.00976   0.00380   0.0025  0.6765  0.9257  -0.6593   0.0000   0.0000   0.0000   0.2310
   2.000   0.2361   0.01014   0.00395   0.0014  0.6164  0.9469  -0.7839   0.0000   0.0000   0.0000   0.2393
   2.500   0.3038   0.01058   0.00413  -0.0007  0.5514  0.9643  -0.9373   0.0000   0.0000   0.0000   0.2476
   3.000   0.3782   0.01106   0.00434  -0.0046  0.4803  0.9765  -1.1284   0.0000   0.0000   0.0000   0.2572
   3.500   0.4515   0.01159   0.00459  -0.0085  0.4059  0.9886  -1.3460   0.0000   0.0000   0.0000   0.2638
   4.000   0.5263   0.01219   0.00488  -0.0130  0.3287  0.9987  -1.5961   0.0000   0.0000   0.0000   0.2694
   4.500   0.5735   0.01277   0.00522  -0.0119  0.2657  1.0000  -1.8142   0.0000   0.0000   0.0000   0.2651
   5.000   0.6154   0.01346   0.00566  -0.0097  0.2099  1.0000  -2.0351   0.0000   0.0000   0.0000   0.2597
   5.500   0.6564   0.01425   0.00624  -0.0073  0.1629  1.0000  -2.2736   0.0000   0.0000   0.0000   0.2547
   6.000   0.6969   0.01512   0.00694  -0.0048  0.1267  1.0000  -2.5235   0.0000   0.0000   0.0000   0.2500
   6.500   0.7370   0.01606   0.00778  -0.0022  0.1013  1.0000  -2.7808   0.0000   0.0000   0.0000   0.2456
   7.000   0.7768   0.01706   0.00874   0.0005  0.0835  1.0000  -3.0632   0.0000   0.0000   0.0000   0.2415
   7.500   0.8155   0.01819   0.00982   0.0033  0.0710  1.0000  -3.3495   0.0000   0.0000   0.0000   0.2376
   8.000   0.8546   0.01936   0.01106   0.0060  0.0616  1.0000  -3.6397   0.0000   0.0000   0.0000   0.2341
   8.500   0.8931   0.02066   0.01242   0.0086  0.0543  1.0000  -3.9516   0.0000   0.0000   0.0000   0.2310
   9.000   0.9306   0.02215   0.01398   0.0113  0.0489  1.0000  -4.2748   0.0000   0.0000   0.0000   0.2280
   9.500   0.9671   0.02375   0.01568   0.0138  0.0443  1.0000  -4.6028   0.0000   0.0000   0.0000   0.2252
  10.000   1.0014   0.02554   0.01748   0.0165  0.0408  1.0000  -4.9328   0.0000   0.0000   0.0000   0.2224
  10.500   1.0351   0.02748   0.01970   0.0192  0.0377  1.0000  -5.2439   0.0000   0.0000   0.0000   0.2197
  11.000   1.0646   0.02961   0.02189   0.0220  0.0353  1.0000  -5.5703   0.0000   0.0000   0.0000   0.2169
  11.500   1.0893   0.03189   0.02450   0.0254  0.0328  1.0000  -5.8848   0.0000   0.0000   0.0000   0.2136
  12.000   1.1083   0.03435   0.02705   0.0290  0.0313  1.0000  -6.1933   0.0000   0.0000   0.0000   0.2100
  12.500   1.1207   0.03775   0.03077   0.0323  0.0300  1.0000  -6.4349   0.0000   0.0000   0.0000   0.2065
  13.000   1.1251   0.04184   0.03528   0.0349  0.0288  1.0000  -6.6265   0.0000   0.0000   0.0000   0.2035
  13.500   1.1264   0.04644   0.04018   0.0360  0.0277  1.0000  -6.8138   0.0000   0.0000   0.0000   0.2017
  14.000   1.1279   0.05148   0.04537   0.0357  0.0268  1.0000  -7.0127   0.0000   0.0000   0.0000   0.2010
  14.500   1.1148   0.05901   0.05324   0.0334  0.0261  1.0000  -7.0732   0.0000   0.0000   0.0000   0.2017
  15.000   1.0819   0.07048   0.06523   0.0272  0.0257  1.0000  -6.9402   0.0000   0.0000   0.0000   0.2053


