xflr5 v6.61

 Calculated polar for: NACA 0012

 1 1 Reynolds number fixed          Mach number fixed         

 xtrf =   1.000 (top)        1.000 (bottom)
 Mach =   0.000     Re =     0.300 e 6     Ncrit =   6.000

  alpha     CL        CD       CDp       Cm    Top Xtr Bot Xtr   Cpmin    Chinge    XCp    
 ------- -------- --------- --------- -------- ------- ------- -------- --------- ---------
 -15.000  -1.1715   0.05656   0.05135  -0.0299  1.0000  0.0209  -7.8496   0.0000   0.0000   0.0000   0.2050
 -14.500  -1.1814   0.04887   0.04331  -0.0328  1.0000  0.0214  -7.7643   0.0000   0.0000   0.0000   0.2038
 -14.000  -1.1844   0.04274   0.03680  -0.0340  1.0000  0.0220  -7.6168   0.0000   0.0000   0.0000   0.2039
 -13.500  -1.1822   0.03785   0.03168  -0.0334  1.0000  0.0227  -7.4111   0.0000   0.0000   0.0000   0.2053
 -13.000  -1.1727   0.03427   0.02794  -0.0319  1.0000  0.0236  -7.1345   0.0000   0.0000   0.0000   0.2073
 -12.500  -1.1583   0.03143   0.02490  -0.0293  1.0000  0.0248  -6.8322   0.0000   0.0000   0.0000   0.2100
 -12.000  -1.1402   0.02901   0.02219  -0.0259  1.0000  0.0262  -6.5228   0.0000   0.0000   0.0000   0.2134
 -11.500  -1.1225   0.02677   0.01984  -0.0217  1.0000  0.0275  -6.2059   0.0000   0.0000   0.0000   0.2175
 -11.000  -1.0939   0.02496   0.01789  -0.0186  1.0000  0.0292  -5.8396   0.0000   0.0000   0.0000   0.2206
 -10.500  -1.0617   0.02322   0.01597  -0.0157  1.0000  0.0313  -5.4925   0.0000   0.0000   0.0000   0.2235
 -10.000  -1.0260   0.02175   0.01442  -0.0132  1.0000  0.0340  -5.1313   0.0000   0.0000   0.0000   0.2260
  -9.500  -0.9890   0.02031   0.01286  -0.0106  1.0000  0.0370  -4.7805   0.0000   0.0000   0.0000   0.2288
  -9.000  -0.9492   0.01911   0.01154  -0.0083  1.0000  0.0407  -4.4257   0.0000   0.0000   0.0000   0.2314
  -8.500  -0.9097   0.01795   0.01033  -0.0058  1.0000  0.0455  -4.0757   0.0000   0.0000   0.0000   0.2343
  -8.000  -0.8698   0.01690   0.00924  -0.0033  1.0000  0.0514  -3.7424   0.0000   0.0000   0.0000   0.2375
  -7.500  -0.8297   0.01593   0.00826  -0.0006  1.0000  0.0589  -3.4358   0.0000   0.0000   0.0000   0.2410
  -7.000  -0.7890   0.01506   0.00741   0.0020  1.0000  0.0690  -3.1341   0.0000   0.0000   0.0000   0.2447
  -6.500  -0.7480   0.01425   0.00664   0.0046  1.0000  0.0830  -2.8400   0.0000   0.0000   0.0000   0.2488
  -6.000  -0.7068   0.01351   0.00597   0.0071  1.0000  0.1027  -2.5694   0.0000   0.0000   0.0000   0.2532
  -5.500  -0.6652   0.01281   0.00539   0.0095  1.0000  0.1305  -2.3122   0.0000   0.0000   0.0000   0.2579
  -5.000  -0.6158   0.01212   0.00488   0.0102  0.9984  0.1706  -2.0474   0.0000   0.0000   0.0000   0.2606
  -4.500  -0.5448   0.01137   0.00439   0.0064  0.9909  0.2298  -1.7592   0.0000   0.0000   0.0000   0.2560
  -4.000  -0.4739   0.01068   0.00398   0.0027  0.9822  0.2970  -1.4982   0.0000   0.0000   0.0000   0.2502
  -3.500  -0.4023   0.01004   0.00363  -0.0009  0.9729  0.3665  -1.2634   0.0000   0.0000   0.0000   0.2424
  -3.000  -0.3362   0.00949   0.00333  -0.0032  0.9590  0.4331  -1.0650   0.0000   0.0000   0.0000   0.2354
  -2.500  -0.2729   0.00900   0.00307  -0.0046  0.9417  0.4970  -0.8978   0.0000   0.0000   0.0000   0.2281
  -2.000  -0.2135   0.00858   0.00286  -0.0050  0.9192  0.5571  -0.7590   0.0000   0.0000   0.0000   0.2218
  -1.500  -0.1574   0.00822   0.00267  -0.0044  0.8913  0.6143  -0.6453   0.0000   0.0000   0.0000   0.2170
  -1.000  -0.1042   0.00795   0.00254  -0.0032  0.8564  0.6686  -0.5535   0.0000   0.0000   0.0000   0.2148
  -0.500  -0.0519   0.00778   0.00245  -0.0016  0.8159  0.7207  -0.4778   0.0000   0.0000   0.0000   0.2138
   0.000   0.0000   0.00772   0.00242  -0.0000  0.7703  0.7703  -0.4141   0.0000   0.0000   0.0000   0.4880
   0.500   0.0519   0.00778   0.00245   0.0016  0.7208  0.8159  -0.4778   0.0000   0.0000   0.0000   0.2138
   1.000   0.1042   0.00795   0.00254   0.0032  0.6686  0.8564  -0.5535   0.0000   0.0000   0.0000   0.2148
   1.500   0.1574   0.00822   0.00267   0.0044  0.6143  0.8914  -0.6453   0.0000   0.0000   0.0000   0.2170
   2.000   0.2135   0.00858   0.00286   0.0050  0.5571  0.9192  -0.7590   0.0000   0.0000   0.0000   0.2218
   2.500   0.2729   0.00900   0.00307   0.0046  0.4970  0.9417  -0.8978   0.0000   0.0000   0.0000   0.2281
   3.000   0.3362   0.00949   0.00333   0.0032  0.4331  0.9590  -1.0650   0.0000   0.0000   0.0000   0.2354
   4.000   0.4739   0.01068   0.00398  -0.0027  0.2970  0.9822  -1.4982   0.0000   0.0000   0.0000   0.2503
   4.500   0.5448   0.01137   0.00439  -0.0064  0.2298  0.9909  -1.7593   0.0000   0.0000   0.0000   0.2560
   5.000   0.6158   0.01212   0.00488  -0.0102  0.1706  0.9984  -2.0475   0.0000   0.0000   0.0000   0.2606
   5.500   0.6652   0.01281   0.00539  -0.0095  0.1305  1.0000  -2.3120   0.0000   0.0000   0.0000   0.2579
   6.000   0.7067   0.01351   0.00597  -0.0071  0.1027  1.0000  -2.5692   0.0000   0.0000   0.0000   0.2532
   6.500   0.7479   0.01425   0.00664  -0.0046  0.0830  1.0000  -2.8399   0.0000   0.0000   0.0000   0.2488
   7.000   0.7889   0.01505   0.00741  -0.0020  0.0690  1.0000  -3.1340   0.0000   0.0000   0.0000   0.2447
   7.500   0.8296   0.01593   0.00826   0.0006  0.0589  1.0000  -3.4357   0.0000   0.0000   0.0000   0.2410
   8.000   0.8698   0.01690   0.00924   0.0033  0.0514  1.0000  -3.7424   0.0000   0.0000   0.0000   0.2375
   8.500   0.9098   0.01794   0.01033   0.0058  0.0455  1.0000  -4.0757   0.0000   0.0000   0.0000   0.2343
   9.000   0.9493   0.01911   0.01154   0.0083  0.0407  1.0000  -4.4258   0.0000   0.0000   0.0000   0.2314
   9.500   0.9891   0.02030   0.01286   0.0106  0.0370  1.0000  -4.7808   0.0000   0.0000   0.0000   0.2288
  10.000   1.0261   0.02175   0.01442   0.0131  0.0340  1.0000  -5.1317   0.0000   0.0000   0.0000   0.2261
  10.500   1.0618   0.02322   0.01597   0.0156  0.0313  1.0000  -5.4932   0.0000   0.0000   0.0000   0.2235
  11.000   1.0941   0.02496   0.01789   0.0185  0.0292  1.0000  -5.8406   0.0000   0.0000   0.0000   0.2206
  11.500   1.1228   0.02677   0.01984   0.0216  0.0275  1.0000  -6.2074   0.0000   0.0000   0.0000   0.2176
  12.000   1.1407   0.02901   0.02219   0.0258  0.0262  1.0000  -6.5249   0.0000   0.0000   0.0000   0.2135
  12.500   1.1588   0.03142   0.02490   0.0292  0.0248  1.0000  -6.8349   0.0000   0.0000   0.0000   0.2101
  13.000   1.1734   0.03426   0.02794   0.0318  0.0236  1.0000  -7.1381   0.0000   0.0000   0.0000   0.2074
  13.500   1.1830   0.03784   0.03167   0.0333  0.0227  1.0000  -7.4155   0.0000   0.0000   0.0000   0.2054
  14.000   1.1854   0.04273   0.03679   0.0338  0.0220  1.0000  -7.6217   0.0000   0.0000   0.0000   0.2041
  14.500   1.1826   0.04886   0.04330   0.0326  0.0214  1.0000  -7.7701   0.0000   0.0000   0.0000   0.2040
  15.000   1.1728   0.05654   0.05133   0.0297  0.0209  1.0000  -7.8564   0.0000   0.0000   0.0000   0.2052


