xflr5 v6.61

 Calculated polar for: NACA 0012

 1 1 Reynolds number fixed          Mach number fixed         

 xtrf =   1.000 (top)        1.000 (bottom)
 Mach =   0.000     Re =     1.000 e 6     Ncrit =   6.000

  alpha     CL        CD       CDp       Cm    Top Xtr Bot Xtr   Cpmin    Chinge    XCp    
 ------- -------- --------- --------- -------- ------- ------- -------- --------- ---------
 -15.000  -1.4220   0.02806   0.02302  -0.0292  1.0000  0.0123  -10.0728   0.0000   0.0000   0.0000   0.2105
 -14.500  -1.4078   0.02545   0.02027  -0.0263  1.0000  0.0129  -9.7012   0.0000   0.0000   0.0000   0.2133
 -14.000  -1.3870   0.02356   0.01825  -0.0229  1.0000  0.0134  -9.2841   0.0000   0.0000   0.0000   0.2164
 -13.500  -1.3622   0.02207   0.01663  -0.0192  1.0000  0.0140  -8.8468   0.0000   0.0000   0.0000   0.2196
 -13.000  -1.3300   0.02082   0.01527  -0.0163  1.0000  0.0147  -8.3738   0.0000   0.0000   0.0000   0.2223
 -12.500  -1.2944   0.01953   0.01386  -0.0139  1.0000  0.0154  -7.8973   0.0000   0.0000   0.0000   0.2246
 -12.000  -1.2562   0.01830   0.01256  -0.0117  1.0000  0.0165  -7.4165   0.0000   0.0000   0.0000   0.2268
 -11.500  -1.2145   0.01730   0.01148  -0.0099  1.0000  0.0175  -6.9262   0.0000   0.0000   0.0000   0.2287
 -11.000  -1.1707   0.01643   0.01052  -0.0083  1.0000  0.0184  -6.4395   0.0000   0.0000   0.0000   0.2305
 -10.500  -1.1279   0.01544   0.00949  -0.0064  1.0000  0.0201  -5.9864   0.0000   0.0000   0.0000   0.2326
 -10.000  -1.0831   0.01469   0.00869  -0.0047  1.0000  0.0218  -5.5518   0.0000   0.0000   0.0000   0.2345
  -9.500  -1.0395   0.01392   0.00789  -0.0027  1.0000  0.0239  -5.1374   0.0000   0.0000   0.0000   0.2369
  -9.000  -0.9959   0.01328   0.00721  -0.0005  1.0000  0.0260  -4.7336   0.0000   0.0000   0.0000   0.2396
  -8.500  -0.9532   0.01263   0.00655   0.0018  1.0000  0.0289  -4.3466   0.0000   0.0000   0.0000   0.2426
  -8.000  -0.9106   0.01207   0.00597   0.0043  1.0000  0.0324  -3.9716   0.0000   0.0000   0.0000   0.2460
  -7.500  -0.8512   0.01146   0.00538   0.0031  0.9978  0.0374  -3.5759   0.0000   0.0000   0.0000   0.2454
  -7.000  -0.7863   0.01087   0.00481   0.0008  0.9942  0.0444  -3.1816   0.0000   0.0000   0.0000   0.2433
  -6.500  -0.7213   0.01030   0.00429  -0.0014  0.9898  0.0540  -2.8035   0.0000   0.0000   0.0000   0.2407
  -6.000  -0.6568   0.00974   0.00381  -0.0035  0.9842  0.0676  -2.4663   0.0000   0.0000   0.0000   0.2376
  -5.000  -0.5364   0.00870   0.00297  -0.0057  0.9625  0.1103  -1.8803   0.0000   0.0000   0.0000   0.2331
  -4.500  -0.4815   0.00821   0.00261  -0.0054  0.9440  0.1424  -1.6333   0.0000   0.0000   0.0000   0.2327
  -4.000  -0.4288   0.00776   0.00228  -0.0047  0.9196  0.1813  -1.4170   0.0000   0.0000   0.0000   0.2334
  -3.500  -0.3764   0.00737   0.00199  -0.0038  0.8898  0.2257  -1.2222   0.0000   0.0000   0.0000   0.2344
  -3.000  -0.3237   0.00703   0.00174  -0.0030  0.8544  0.2742  -1.0476   0.0000   0.0000   0.0000   0.2355
  -2.000  -0.2170   0.00656   0.00137  -0.0017  0.7706  0.3766  -0.7626   0.0000   0.0000   0.0000   0.2371
  -1.500  -0.1631   0.00642   0.00125  -0.0012  0.7241  0.4283  -0.6503   0.0000   0.0000   0.0000   0.2377
  -1.000  -0.1089   0.00632   0.00116  -0.0008  0.6762  0.4791  -0.5568   0.0000   0.0000   0.0000   0.2383
  -0.500  -0.0545   0.00627   0.00111  -0.0004  0.6278  0.5291  -0.4791   0.0000   0.0000   0.0000   0.2385
   0.000   0.0000   0.00624   0.00110  -0.0000  0.5787  0.5787  -0.4138   0.0000   0.0000   0.0000   0.4468
   0.500   0.0545   0.00627   0.00111   0.0004  0.5291  0.6278  -0.4791   0.0000   0.0000   0.0000   0.2385
   1.000   0.1089   0.00632   0.00116   0.0008  0.4791  0.6762  -0.5568   0.0000   0.0000   0.0000   0.2383
   1.500   0.1631   0.00642   0.00125   0.0012  0.4283  0.7241  -0.6503   0.0000   0.0000   0.0000   0.2377
   2.000   0.2170   0.00656   0.00137   0.0017  0.3766  0.7706  -0.7626   0.0000   0.0000   0.0000   0.2371
   3.000   0.3237   0.00703   0.00174   0.0030  0.2742  0.8543  -1.0476   0.0000   0.0000   0.0000   0.2355
   3.500   0.3764   0.00737   0.00199   0.0038  0.2257  0.8898  -1.2222   0.0000   0.0000   0.0000   0.2344
   4.000   0.4288   0.00776   0.00228   0.0047  0.1813  0.9195  -1.4171   0.0000   0.0000   0.0000   0.2334
   4.500   0.4815   0.00821   0.00261   0.0054  0.1424  0.9440  -1.6333   0.0000   0.0000   0.0000   0.2327
   5.000   0.5364   0.00870   0.00297   0.0057  0.1103  0.9625  -1.8803   0.0000   0.0000   0.0000   0.2331
   6.000   0.6568   0.00974   0.00381   0.0035  0.0676  0.9842  -2.4663   0.0000   0.0000   0.0000   0.2376
   6.500   0.7213   0.01030   0.00429   0.0014  0.0540  0.9898  -2.8036   0.0000   0.0000   0.0000   0.2407
   7.000   0.7863   0.01087   0.00481  -0.0008  0.0444  0.9942  -3.1817   0.0000   0.0000   0.0000   0.2433
   7.500   0.8512   0.01146   0.00538  -0.0031  0.0374  0.9978  -3.5760   0.0000   0.0000   0.0000   0.2455
   8.000   0.9105   0.01207   0.00597  -0.0043  0.0324  1.0000  -3.9714   0.0000   0.0000   0.0000   0.2460
   8.500   0.9531   0.01263   0.00655  -0.0018  0.0289  1.0000  -4.3464   0.0000   0.0000   0.0000   0.2426
   9.000   0.9959   0.01328   0.00721   0.0006  0.0260  1.0000  -4.7335   0.0000   0.0000   0.0000   0.2396
   9.500   1.0395   0.01392   0.00789   0.0027  0.0239  1.0000  -5.1374   0.0000   0.0000   0.0000   0.2369
  10.000   1.0831   0.01469   0.00869   0.0047  0.0218  1.0000  -5.5519   0.0000   0.0000   0.0000   0.2346
  10.500   1.1280   0.01544   0.00949   0.0064  0.0201  1.0000  -5.9867   0.0000   0.0000   0.0000   0.2326
  11.000   1.1708   0.01643   0.01052   0.0082  0.0184  1.0000  -6.4400   0.0000   0.0000   0.0000   0.2305
  11.500   1.2146   0.01730   0.01148   0.0099  0.0175  1.0000  -6.9269   0.0000   0.0000   0.0000   0.2287
  12.000   1.2564   0.01830   0.01256   0.0117  0.0165  1.0000  -7.4174   0.0000   0.0000   0.0000   0.2268
  12.500   1.2946   0.01953   0.01386   0.0138  0.0154  1.0000  -7.8985   0.0000   0.0000   0.0000   0.2246
  13.000   1.3303   0.02082   0.01527   0.0163  0.0147  1.0000  -8.3754   0.0000   0.0000   0.0000   0.2223
  13.500   1.3627   0.02207   0.01663   0.0191  0.0140  1.0000  -8.8493   0.0000   0.0000   0.0000   0.2197
  14.000   1.3876   0.02356   0.01825   0.0228  0.0134  1.0000  -9.2874   0.0000   0.0000   0.0000   0.2164
  14.500   1.4085   0.02545   0.02026   0.0262  0.0129  1.0000  -9.7054   0.0000   0.0000   0.0000   0.2134
  15.000   1.4229   0.02806   0.02302   0.0291  0.0123  1.0000  -10.0778   0.0000   0.0000   0.0000   0.2106


