xflr5 v6.61

 Calculated polar for: NACA 0012

 1 1 Reynolds number fixed          Mach number fixed         

 xtrf =   1.000 (top)        1.000 (bottom)
 Mach =   0.000     Re =     0.500 e 6     Ncrit =   6.000

  alpha     CL        CD       CDp       Cm    Top Xtr Bot Xtr   Cpmin    Chinge    XCp    
 ------- -------- --------- --------- -------- ------- ------- -------- --------- ---------
 -15.000  -1.2804   0.04257   0.03749  -0.0312  1.0000  0.0165  -8.8680   0.0000   0.0000   0.0000   0.2063
 -14.500  -1.2773   0.03728   0.03197  -0.0321  1.0000  0.0171  -8.6295   0.0000   0.0000   0.0000   0.2066
 -14.000  -1.2699   0.03312   0.02757  -0.0314  1.0000  0.0177  -8.3563   0.0000   0.0000   0.0000   0.2080
 -13.500  -1.2575   0.02992   0.02413  -0.0295  1.0000  0.0183  -8.0479   0.0000   0.0000   0.0000   0.2102
 -13.000  -1.2463   0.02706   0.02108  -0.0261  1.0000  0.0190  -7.7440   0.0000   0.0000   0.0000   0.2136
 -12.500  -1.2279   0.02499   0.01889  -0.0222  1.0000  0.0198  -7.3873   0.0000   0.0000   0.0000   0.2172
 -12.000  -1.2021   0.02339   0.01715  -0.0186  1.0000  0.0209  -6.9957   0.0000   0.0000   0.0000   0.2206
 -11.500  -1.1682   0.02198   0.01555  -0.0160  1.0000  0.0221  -6.5735   0.0000   0.0000   0.0000   0.2232
 -11.000  -1.1343   0.02045   0.01395  -0.0133  1.0000  0.0238  -6.1573   0.0000   0.0000   0.0000   0.2258
 -10.500  -1.0948   0.01928   0.01266  -0.0112  1.0000  0.0256  -5.7414   0.0000   0.0000   0.0000   0.2280
 -10.000  -1.0555   0.01805   0.01134  -0.0089  1.0000  0.0276  -5.3543   0.0000   0.0000   0.0000   0.2304
  -9.500  -1.0134   0.01706   0.01027  -0.0069  1.0000  0.0301  -4.9609   0.0000   0.0000   0.0000   0.2327
  -9.000  -0.9718   0.01609   0.00926  -0.0047  1.0000  0.0333  -4.5794   0.0000   0.0000   0.0000   0.2353
  -8.500  -0.9300   0.01523   0.00834  -0.0023  1.0000  0.0370  -4.2090   0.0000   0.0000   0.0000   0.2382
  -8.000  -0.8881   0.01446   0.00754   0.0001  1.0000  0.0415  -3.8507   0.0000   0.0000   0.0000   0.2413
  -7.500  -0.8463   0.01374   0.00681   0.0026  1.0000  0.0476  -3.5270   0.0000   0.0000   0.0000   0.2448
  -7.000  -0.8045   0.01307   0.00615   0.0051  1.0000  0.0552  -3.2133   0.0000   0.0000   0.0000   0.2486
  -6.500  -0.7626   0.01246   0.00557   0.0076  1.0000  0.0657  -2.9086   0.0000   0.0000   0.0000   0.2527
  -6.000  -0.7015   0.01179   0.00497   0.0060  0.9966  0.0828  -2.5729   0.0000   0.0000   0.0000   0.2518
  -5.000  -0.5658   0.01042   0.00390   0.0001  0.9845  0.1463  -1.9408   0.0000   0.0000   0.0000   0.2439
  -4.500  -0.4985   0.00974   0.00345  -0.0027  0.9767  0.1947  -1.6639   0.0000   0.0000   0.0000   0.2386
  -4.000  -0.4344   0.00911   0.00305  -0.0047  0.9657  0.2501  -1.4253   0.0000   0.0000   0.0000   0.2334
  -3.500  -0.3743   0.00854   0.00271  -0.0057  0.9497  0.3083  -1.2173   0.0000   0.0000   0.0000   0.2293
  -3.000  -0.3171   0.00805   0.00243  -0.0058  0.9290  0.3664  -1.0373   0.0000   0.0000   0.0000   0.2263
  -2.500  -0.2627   0.00764   0.00218  -0.0053  0.9025  0.4235  -0.8850   0.0000   0.0000   0.0000   0.2248
  -2.000  -0.2099   0.00732   0.00198  -0.0043  0.8691  0.4791  -0.7550   0.0000   0.0000   0.0000   0.2246
  -1.500  -0.1574   0.00708   0.00182  -0.0032  0.8303  0.5334  -0.6452   0.0000   0.0000   0.0000   0.2247
  -0.500  -0.0525   0.00684   0.00163  -0.0011  0.7395  0.6389  -0.4781   0.0000   0.0000   0.0000   0.2250
   0.000   0.0000   0.00682   0.00161  -0.0000  0.6899  0.6899  -0.4141   0.0000   0.0000   0.0000   0.4621
   0.500   0.0525   0.00684   0.00163   0.0011  0.6389  0.7395  -0.4781   0.0000   0.0000   0.0000   0.2250
   1.500   0.1574   0.00708   0.00182   0.0032  0.5334  0.8303  -0.6452   0.0000   0.0000   0.0000   0.2247
   2.000   0.2099   0.00732   0.00198   0.0043  0.4791  0.8691  -0.7550   0.0000   0.0000   0.0000   0.2246
   2.500   0.2627   0.00764   0.00218   0.0053  0.4235  0.9025  -0.8850   0.0000   0.0000   0.0000   0.2248
   3.000   0.3171   0.00805   0.00243   0.0058  0.3663  0.9290  -1.0373   0.0000   0.0000   0.0000   0.2263
   3.500   0.3743   0.00854   0.00271   0.0057  0.3083  0.9497  -1.2173   0.0000   0.0000   0.0000   0.2293
   4.000   0.4344   0.00911   0.00305   0.0047  0.2501  0.9657  -1.4253   0.0000   0.0000   0.0000   0.2334
   4.500   0.4985   0.00974   0.00345   0.0027  0.1947  0.9767  -1.6640   0.0000   0.0000   0.0000   0.2386
   5.000   0.5658   0.01042   0.00390  -0.0001  0.1463  0.9845  -1.9408   0.0000   0.0000   0.0000   0.2439
   6.000   0.7015   0.01179   0.00497  -0.0061  0.0828  0.9966  -2.5729   0.0000   0.0000   0.0000   0.2518
   6.500   0.7625   0.01246   0.00557  -0.0076  0.0657  1.0000  -2.9084   0.0000   0.0000   0.0000   0.2527
   7.000   0.8045   0.01307   0.00615  -0.0051  0.0552  1.0000  -3.2131   0.0000   0.0000   0.0000   0.2486
   7.500   0.8462   0.01373   0.00681  -0.0026  0.0476  1.0000  -3.5268   0.0000   0.0000   0.0000   0.2448
   8.000   0.8880   0.01446   0.00754  -0.0001  0.0415  1.0000  -3.8506   0.0000   0.0000   0.0000   0.2413
   8.500   0.9300   0.01523   0.00834   0.0023  0.0370  1.0000  -4.2089   0.0000   0.0000   0.0000   0.2382
   9.000   0.9719   0.01609   0.00926   0.0047  0.0333  1.0000  -4.5795   0.0000   0.0000   0.0000   0.2353
   9.500   1.0135   0.01706   0.01027   0.0069  0.0301  1.0000  -4.9611   0.0000   0.0000   0.0000   0.2327
  10.000   1.0555   0.01805   0.01134   0.0089  0.0276  1.0000  -5.3546   0.0000   0.0000   0.0000   0.2304
  10.500   1.0950   0.01928   0.01266   0.0112  0.0256  1.0000  -5.7418   0.0000   0.0000   0.0000   0.2280
  11.000   1.1344   0.02045   0.01395   0.0133  0.0238  1.0000  -6.1581   0.0000   0.0000   0.0000   0.2258
  11.500   1.1685   0.02198   0.01555   0.0160  0.0221  1.0000  -6.5746   0.0000   0.0000   0.0000   0.2232
  12.000   1.2024   0.02339   0.01715   0.0186  0.0209  1.0000  -6.9971   0.0000   0.0000   0.0000   0.2207
  12.500   1.2284   0.02499   0.01889   0.0222  0.0198  1.0000  -7.3896   0.0000   0.0000   0.0000   0.2173
  13.000   1.2469   0.02706   0.02108   0.0260  0.0189  1.0000  -7.7467   0.0000   0.0000   0.0000   0.2137
  13.500   1.2582   0.02992   0.02413   0.0294  0.0183  1.0000  -8.0518   0.0000   0.0000   0.0000   0.2103
  14.000   1.2708   0.03311   0.02756   0.0313  0.0177  1.0000  -8.3612   0.0000   0.0000   0.0000   0.2081
  14.500   1.2784   0.03726   0.03195   0.0320  0.0170  1.0000  -8.6358   0.0000   0.0000   0.0000   0.2067
  15.000   1.2817   0.04253   0.03745   0.0311  0.0165  1.0000  -8.8760   0.0000   0.0000   0.0000   0.2064


