xflr5 v6.61

 Calculated polar for: NACA 0012

 1 1 Reynolds number fixed          Mach number fixed         

 xtrf =   1.000 (top)        1.000 (bottom)
 Mach =   0.000     Re =     0.100 e 6     Ncrit =   6.000

  alpha     CL        CD       CDp       Cm    Top Xtr Bot Xtr   Cpmin    Chinge    XCp    
 ------- -------- --------- --------- -------- ------- ------- -------- --------- ---------
 -15.000  -0.7003   0.16546   0.15977   0.0234  1.0000  0.0489  -2.3218   0.0000   0.0000   0.0000   0.2673
 -14.500  -0.6999   0.15487   0.14919   0.0184  1.0000  0.0496  -2.4547   0.0000   0.0000   0.0000   0.2606
 -13.500  -0.8956   0.08516   0.07934  -0.0227  1.0000  0.0453  -4.6968   0.0000   0.0000   0.0000   0.2083
 -13.000  -0.9620   0.06822   0.06194  -0.0336  1.0000  0.0446  -5.0870   0.0000   0.0000   0.0000   0.1997
 -12.500  -1.0098   0.05788   0.05104  -0.0363  1.0000  0.0449  -5.2752   0.0000   0.0000   0.0000   0.1997
 -12.000  -1.0462   0.05079   0.04325  -0.0327  1.0000  0.0458  -5.3664   0.0000   0.0000   0.0000   0.2053
 -11.500  -1.0443   0.04610   0.03820  -0.0288  1.0000  0.0474  -5.2213   0.0000   0.0000   0.0000   0.2096
 -11.000  -1.0293   0.04192   0.03362  -0.0256  1.0000  0.0497  -5.0168   0.0000   0.0000   0.0000   0.2130
 -10.500  -1.0085   0.03806   0.02930  -0.0224  1.0000  0.0533  -4.8040   0.0000   0.0000   0.0000   0.2163
 -10.000  -0.9793   0.03479   0.02556  -0.0196  1.0000  0.0578  -4.5671   0.0000   0.0000   0.0000   0.2190
  -9.500  -0.9430   0.03202   0.02268  -0.0175  1.0000  0.0626  -4.2790   0.0000   0.0000   0.0000   0.2210
  -9.000  -0.9064   0.02956   0.02003  -0.0152  1.0000  0.0693  -3.9927   0.0000   0.0000   0.0000   0.2233
  -8.500  -0.8683   0.02729   0.01761  -0.0129  1.0000  0.0773  -3.7062   0.0000   0.0000   0.0000   0.2258
  -8.000  -0.8307   0.02527   0.01559  -0.0104  1.0000  0.0874  -3.4350   0.0000   0.0000   0.0000   0.2287
  -7.500  -0.7931   0.02348   0.01375  -0.0077  1.0000  0.1013  -3.1754   0.0000   0.0000   0.0000   0.2320
  -7.000  -0.7564   0.02181   0.01216  -0.0048  1.0000  0.1195  -2.9173   0.0000   0.0000   0.0000   0.2358
  -6.500  -0.7196   0.02029   0.01075  -0.0019  1.0000  0.1459  -2.6673   0.0000   0.0000   0.0000   0.2401
  -6.000  -0.6824   0.01891   0.00953   0.0011  1.0000  0.1841  -2.4349   0.0000   0.0000   0.0000   0.2447
  -5.500  -0.6446   0.01768   0.00856   0.0040  1.0000  0.2365  -2.2022   0.0000   0.0000   0.0000   0.2497
  -5.000  -0.6059   0.01665   0.00780   0.0068  1.0000  0.2998  -1.9819   0.0000   0.0000   0.0000   0.2552
  -4.500  -0.5663   0.01581   0.00724   0.0096  1.0000  0.3682  -1.7708   0.0000   0.0000   0.0000   0.2612
  -4.000  -0.5256   0.01514   0.00682   0.0123  1.0000  0.4377  -1.5733   0.0000   0.0000   0.0000   0.2681
  -3.500  -0.4839   0.01462   0.00656   0.0149  1.0000  0.5063  -1.3874   0.0000   0.0000   0.0000   0.2759
  -3.000  -0.4413   0.01424   0.00642   0.0174  1.0000  0.5743  -1.2169   0.0000   0.0000   0.0000   0.2849
  -2.500  -0.3981   0.01400   0.00644   0.0199  1.0000  0.6415  -1.0633   0.0000   0.0000   0.0000   0.2958
  -2.000  -0.3450   0.01394   0.00661   0.0205  0.9960  0.7096  -0.9133   0.0000   0.0000   0.0000   0.3055
  -1.500  -0.2626   0.01403   0.00687   0.0157  0.9779  0.7780  -0.7489   0.0000   0.0000   0.0000   0.3061
  -1.000  -0.1787   0.01419   0.00712   0.0110  0.9584  0.8349  -0.6141   0.0000   0.0000   0.0000   0.3082
  -0.500  -0.0899   0.01433   0.00729   0.0056  0.9379  0.8797  -0.5024   0.0000   0.0000   0.0000   0.3085
   0.000  -0.0000   0.01437   0.00734   0.0000  0.9133  0.9133  -0.4116   0.0000   0.0000   0.0000   0.4648
   0.500   0.0899   0.01433   0.00729  -0.0056  0.8797  0.9379  -0.5024   0.0000   0.0000   0.0000   0.3085
   1.000   0.1787   0.01419   0.00712  -0.0110  0.8349  0.9584  -0.6141   0.0000   0.0000   0.0000   0.3082
   1.500   0.2626   0.01403   0.00687  -0.0157  0.7780  0.9779  -0.7489   0.0000   0.0000   0.0000   0.3061
   2.000   0.3450   0.01394   0.00661  -0.0205  0.7096  0.9960  -0.9133   0.0000   0.0000   0.0000   0.3055
   2.500   0.3980   0.01400   0.00644  -0.0199  0.6415  1.0000  -1.0632   0.0000   0.0000   0.0000   0.2958
   3.000   0.4413   0.01423   0.00642  -0.0174  0.5743  1.0000  -1.2168   0.0000   0.0000   0.0000   0.2849
   3.500   0.4838   0.01462   0.00656  -0.0149  0.5064  1.0000  -1.3872   0.0000   0.0000   0.0000   0.2758
   4.000   0.5255   0.01514   0.00682  -0.0122  0.4377  1.0000  -1.5732   0.0000   0.0000   0.0000   0.2681
   4.500   0.5662   0.01581   0.00724  -0.0096  0.3683  1.0000  -1.7707   0.0000   0.0000   0.0000   0.2612
   5.000   0.6059   0.01665   0.00780  -0.0068  0.2999  1.0000  -1.9818   0.0000   0.0000   0.0000   0.2551
   5.500   0.6445   0.01768   0.00856  -0.0040  0.2365  1.0000  -2.2021   0.0000   0.0000   0.0000   0.2497
   6.000   0.6824   0.01891   0.00953  -0.0011  0.1841  1.0000  -2.4348   0.0000   0.0000   0.0000   0.2447
   6.500   0.7196   0.02029   0.01075   0.0019  0.1459  1.0000  -2.6673   0.0000   0.0000   0.0000   0.2401
   7.000   0.7564   0.02181   0.01216   0.0048  0.1195  1.0000  -2.9172   0.0000   0.0000   0.0000   0.2358
   7.500   0.7931   0.02348   0.01375   0.0077  0.1013  1.0000  -3.1754   0.0000   0.0000   0.0000   0.2320
   8.000   0.8308   0.02527   0.01558   0.0104  0.0874  1.0000  -3.4350   0.0000   0.0000   0.0000   0.2287
   8.500   0.8684   0.02729   0.01761   0.0129  0.0773  1.0000  -3.7064   0.0000   0.0000   0.0000   0.2258
   9.000   0.9065   0.02956   0.02003   0.0152  0.0693  1.0000  -3.9929   0.0000   0.0000   0.0000   0.2233
   9.500   0.9431   0.03202   0.02268   0.0175  0.0626  1.0000  -4.2793   0.0000   0.0000   0.0000   0.2210
  10.000   0.9794   0.03480   0.02556   0.0196  0.0578  1.0000  -4.5674   0.0000   0.0000   0.0000   0.2190
  10.500   1.0087   0.03807   0.02930   0.0223  0.0533  1.0000  -4.8047   0.0000   0.0000   0.0000   0.2163
  11.000   1.0295   0.04192   0.03363   0.0255  0.0497  1.0000  -5.0175   0.0000   0.0000   0.0000   0.2131
  11.500   1.0446   0.04611   0.03821   0.0288  0.0474  1.0000  -5.2225   0.0000   0.0000   0.0000   0.2097
  12.000   1.0464   0.05081   0.04328   0.0326  0.0458  1.0000  -5.3666   0.0000   0.0000   0.0000   0.2054
  12.500   1.0102   0.05792   0.05108   0.0362  0.0449  1.0000  -5.2756   0.0000   0.0000   0.0000   0.1999
  13.000   0.9624   0.06829   0.06201   0.0335  0.0446  1.0000  -5.0869   0.0000   0.0000   0.0000   0.1999
  13.500   0.8957   0.08535   0.07954   0.0223  0.0453  1.0000  -4.6930   0.0000   0.0000   0.0000   0.2087
  14.500   0.7011   0.15501   0.14933  -0.0187  0.0495  1.0000  -2.4556   0.0000   0.0000   0.0000   0.2609
  15.000   0.7014   0.16564   0.15995  -0.0237  0.0489  1.0000  -2.3223   0.0000   0.0000   0.0000   0.2676


