xflr5 v6.61

 Calculated polar for: CLARK Y AIRFOIL

 1 1 Reynolds number fixed          Mach number fixed         

 xtrf =   1.000 (top)        1.000 (bottom)
 Mach =   0.000     Re =     0.130 e 6     Ncrit =   7.000

  alpha     CL        CD       CDp       Cm    Top Xtr Bot Xtr   Cpmin    Chinge    XCp    
 ------- -------- --------- --------- -------- ------- ------- -------- --------- ---------
 -15.000  -0.4530   0.17453   0.16959  -0.0116  1.0000  0.0457  -1.6961   0.0000   0.0000   0.0000   0.2074
 -14.500  -0.4373   0.16841   0.16348  -0.0142  1.0000  0.0495  -1.6642   0.0000   0.0000   0.0000   0.2010
 -14.000  -0.4480   0.16414   0.15929  -0.0219  1.0000  0.0515  -1.9416   0.0000   0.0000   0.0000   0.1855
 -13.500  -0.4128   0.15503   0.15015  -0.0200  1.0000  0.0541  -1.6842   0.0000   0.0000   0.0000   0.1858
 -13.000  -0.4102   0.14934   0.14451  -0.0247  1.0000  0.0591  -1.7783   0.0000   0.0000   0.0000   0.1746
 -12.500  -0.3979   0.14159   0.13679  -0.0267  1.0000  0.0607  -1.7575   0.0000   0.0000   0.0000   0.1680
 -12.000  -0.3810   0.13533   0.13054  -0.0276  1.0000  0.0647  -1.6723   0.0000   0.0000   0.0000   0.1628
 -11.500  -0.4020   0.12943   0.12475  -0.0366  1.0000  0.0686  -1.9696   0.0000   0.0000   0.0000   0.1456
 -11.000  -0.3686   0.12164   0.11694  -0.0331  1.0000  0.0714  -1.7214   0.0000   0.0000   0.0000   0.1465
 -10.500  -0.3623   0.11545   0.11080  -0.0355  1.0000  0.0767  -1.7173   0.0000   0.0000   0.0000   0.1389
 -10.000  -0.2882   0.10648   0.10217  -0.0399  1.0000  0.0826  -1.4876   0.0000   0.0000   0.0000   0.1003
  -9.500  -0.2966   0.10059   0.09638  -0.0403  1.0000  0.0879  -1.5261   0.0000   0.0000   0.0000   0.1039
  -9.000  -0.3540   0.09441   0.09044  -0.0434  1.0000  0.0898  -1.8404   0.0000   0.0000   0.0000   0.1191
  -8.500  -0.3265   0.08938   0.08543  -0.0363  1.0000  0.0930  -1.5921   0.0000   0.0000   0.0000   0.1307
  -8.000  -0.3489   0.08556   0.08175  -0.0317  1.0000  0.0954  -1.6104   0.0000   0.0000   0.0000   0.1521
  -7.000  -0.4657   0.04766   0.04252  -0.0631  0.9804  0.0604  -3.0363   0.0000   0.0000   0.0000   0.1065
  -6.500  -0.4183   0.03754   0.03117  -0.0689  0.9686  0.0592  -3.0318   0.0000   0.0000   0.0000   0.0768
  -6.000  -0.3612   0.03186   0.02477  -0.0723  0.9579  0.0609  -2.8314   0.0000   0.0000   0.0000   0.0406
  -5.500  -0.2985   0.02795   0.02023  -0.0751  0.9475  0.0623  -2.6054   0.0000   0.0000   0.0000  -0.0118
  -5.000  -0.2316   0.02521   0.01694  -0.0780  0.9376  0.0658  -2.3712   0.0000   0.0000   0.0000  -0.0981
  -4.500  -0.1554   0.02272   0.01386  -0.0819  0.9307  0.0687  -2.1656   0.0000   0.0000   0.0000  -0.2928
  -4.000  -0.0901   0.02091   0.01207  -0.0841  0.9196  0.0745  -1.9369   0.0000   0.0000   0.0000  -0.7054
  -3.500  -0.0261   0.01935   0.01045  -0.0855  0.9082  0.0811  -1.7521   0.0000   0.0000   0.0000  -3.0899
  -3.000   0.0357   0.01811   0.00928  -0.0866  0.8961  0.0956  -1.5610   0.0000   0.0000   0.0000   2.7181
  -2.500   0.0950   0.01677   0.00819  -0.0872  0.8835  0.1427  -1.3872   0.0000   0.0000   0.0000   1.1801
  -2.000   0.1530   0.01560   0.00761  -0.0876  0.8700  0.2838  -1.2057   0.0000   0.0000   0.0000   0.8282
  -1.500   0.2040   0.01427   0.00721  -0.0862  0.8530  0.5133  -1.0212   0.0000   0.0000   0.0000   0.6754
  -1.000   0.2728   0.01300   0.00702  -0.0856  0.8358  0.9214  -0.8052   0.0000   0.0000   0.0000   0.5646
  -0.500   0.3779   0.01260   0.00626  -0.0947  0.8193  1.0000  -0.7050   0.0000   0.0000   0.0000   0.5001
   0.000   0.4254   0.01261   0.00602  -0.0928  0.7984  1.0000  -0.7516   0.0000   0.0000   0.0000   0.4669
   0.500   0.4754   0.01261   0.00578  -0.0912  0.7785  1.0000  -0.8002   0.0000   0.0000   0.0000   0.4400
   1.000   0.5252   0.01267   0.00564  -0.0896  0.7572  1.0000  -0.8506   0.0000   0.0000   0.0000   0.4181
   1.500   0.5743   0.01279   0.00559  -0.0878  0.7341  1.0000  -0.9014   0.0000   0.0000   0.0000   0.4000
   2.000   0.6240   0.01293   0.00558  -0.0862  0.7101  1.0000  -0.9538   0.0000   0.0000   0.0000   0.3846
   2.500   0.6739   0.01309   0.00562  -0.0846  0.6840  1.0000  -1.0082   0.0000   0.0000   0.0000   0.3715
   3.000   0.7238   0.01330   0.00569  -0.0830  0.6562  1.0000  -1.0657   0.0000   0.0000   0.0000   0.3601
   3.500   0.7720   0.01357   0.00587  -0.0811  0.6232  1.0000  -1.1459   0.0000   0.0000   0.0000   0.3501
   4.000   0.8201   0.01391   0.00608  -0.0793  0.5876  1.0000  -1.2564   0.0000   0.0000   0.0000   0.3411
   4.500   0.8672   0.01436   0.00638  -0.0773  0.5485  1.0000  -1.3709   0.0000   0.0000   0.0000   0.3331
   5.000   0.9135   0.01495   0.00681  -0.0753  0.5093  1.0000  -1.4930   0.0000   0.0000   0.0000   0.3259
   5.500   0.9591   0.01566   0.00738  -0.0734  0.4730  1.0000  -1.6184   0.0000   0.0000   0.0000   0.3194
   6.000   1.0038   0.01642   0.00801  -0.0714  0.4392  1.0000  -1.7520   0.0000   0.0000   0.0000   0.3134
   6.500   1.0468   0.01723   0.00868  -0.0692  0.4066  1.0000  -1.8865   0.0000   0.0000   0.0000   0.3078
   7.000   1.0910   0.01810   0.00952  -0.0673  0.3813  1.0000  -2.0239   0.0000   0.0000   0.0000   0.3027
   7.500   1.1347   0.01903   0.01046  -0.0654  0.3587  1.0000  -2.2490   0.0000   0.0000   0.0000   0.2981
   8.000   1.1769   0.01998   0.01151  -0.0634  0.3360  1.0000  -2.5691   0.0000   0.0000   0.0000   0.2936
   8.500   1.2169   0.02098   0.01262  -0.0610  0.3129  1.0000  -2.9059   0.0000   0.0000   0.0000   0.2892
   9.000   1.2522   0.02201   0.01379  -0.0579  0.2866  1.0000  -3.2481   0.0000   0.0000   0.0000   0.2846
   9.500   1.2805   0.02308   0.01499  -0.0539  0.2527  1.0000  -3.5739   0.0000   0.0000   0.0000   0.2797
  10.000   1.2994   0.02445   0.01636  -0.0487  0.2130  1.0000  -3.8742   0.0000   0.0000   0.0000   0.2743
  10.500   1.3144   0.02647   0.01828  -0.0436  0.1764  1.0000  -4.1741   0.0000   0.0000   0.0000   0.2693
  11.000   1.3286   0.02892   0.02072  -0.0392  0.1514  1.0000  -4.4713   0.0000   0.0000   0.0000   0.2648
  11.500   1.3409   0.03171   0.02353  -0.0352  0.1328  1.0000  -4.7620   0.0000   0.0000   0.0000   0.2607
  12.000   1.3538   0.03467   0.02664  -0.0320  0.1155  1.0000  -5.0551   0.0000   0.0000   0.0000   0.2572
  12.500   1.3627   0.03817   0.03029  -0.0292  0.0982  1.0000  -5.3240   0.0000   0.0000   0.0000   0.2541
  13.000   1.3660   0.04250   0.03477  -0.0269  0.0791  1.0000  -5.5498   0.0000   0.0000   0.0000   0.2514
  13.500   1.3601   0.04819   0.04053  -0.0252  0.0559  1.0000  -5.7137   0.0000   0.0000   0.0000   0.2493
  14.000   1.3458   0.05527   0.04770  -0.0244  0.0425  1.0000  -5.8273   0.0000   0.0000   0.0000   0.2478
  14.500   1.3288   0.06330   0.05590  -0.0247  0.0368  1.0000  -5.9183   0.0000   0.0000   0.0000   0.2472
  15.000   1.3108   0.07216   0.06500  -0.0261  0.0336  1.0000  -5.9908   0.0000   0.0000   0.0000   0.2475


