xflr5 v6.61

 Calculated polar for: CLARK Y AIRFOIL

 1 1 Reynolds number fixed          Mach number fixed         

 xtrf =   1.000 (top)        1.000 (bottom)
 Mach =   0.000     Re =     0.080 e 6     Ncrit =   7.000

  alpha     CL        CD       CDp       Cm    Top Xtr Bot Xtr   Cpmin    Chinge    XCp    
 ------- -------- --------- --------- -------- ------- ------- -------- --------- ---------
 -15.000  -0.4628   0.17980   0.17356  -0.0136  1.0000  0.0691  -1.7122   0.0000   0.0000   0.0000   0.2042
 -14.500  -0.4365   0.17126   0.16501  -0.0139  1.0000  0.0739  -1.5827   0.0000   0.0000   0.0000   0.2018
 -14.000  -0.4364   0.16754   0.16135  -0.0191  1.0000  0.0785  -1.6933   0.0000   0.0000   0.0000   0.1906
 -13.500  -0.4151   0.15868   0.15250  -0.0202  1.0000  0.0810  -1.6213   0.0000   0.0000   0.0000   0.1859
 -13.000  -0.4011   0.15249   0.14633  -0.0222  1.0000  0.0873  -1.5827   0.0000   0.0000   0.0000   0.1795
 -12.500  -0.4132   0.14848   0.14245  -0.0282  1.0000  0.0902  -1.7426   0.0000   0.0000   0.0000   0.1676
 -12.000  -0.3795   0.13933   0.13326  -0.0266  1.0000  0.0956  -1.5719   0.0000   0.0000   0.0000   0.1654
 -11.500  -0.3951   0.13534   0.12939  -0.0328  1.0000  0.1012  -1.7336   0.0000   0.0000   0.0000   0.1539
 -11.000  -0.3636   0.12653   0.12056  -0.0309  1.0000  0.1063  -1.5687   0.0000   0.0000   0.0000   0.1515
 -10.500  -0.3782   0.12176   0.11592  -0.0363  1.0000  0.1128  -1.6973   0.0000   0.0000   0.0000   0.1419
 -10.000  -0.3513   0.11409   0.10825  -0.0344  1.0000  0.1192  -1.5586   0.0000   0.0000   0.0000   0.1398
  -9.500  -0.3870   0.10987   0.10427  -0.0409  1.0000  0.1251  -1.7750   0.0000   0.0000   0.0000   0.1338
  -9.000  -0.3487   0.10230   0.09667  -0.0364  1.0000  0.1324  -1.5606   0.0000   0.0000   0.0000   0.1347
  -8.500  -0.4074   0.09913   0.09386  -0.0389  1.0000  0.1372  -1.7987   0.0000   0.0000   0.0000   0.1461
  -8.000  -0.3755   0.09279   0.08751  -0.0338  1.0000  0.1467  -1.6120   0.0000   0.0000   0.0000   0.1513
  -7.500  -0.4587   0.09018   0.08525  -0.0334  1.0000  0.1495  -1.8770   0.0000   0.0000   0.0000   0.1708
  -7.000  -0.4371   0.08521   0.08035  -0.0248  1.0000  0.1546  -1.6986   0.0000   0.0000   0.0000   0.1870
  -6.000  -0.4787   0.05474   0.04895  -0.0430  0.9963  0.0882  -2.4674   0.0000   0.0000   0.0000   0.1542
  -5.500  -0.4209   0.04365   0.03685  -0.0516  0.9853  0.0833  -2.4645   0.0000   0.0000   0.0000   0.1207
  -5.000  -0.3562   0.03672   0.02881  -0.0572  0.9741  0.0848  -2.3588   0.0000   0.0000   0.0000   0.0819
  -4.500  -0.2866   0.03197   0.02303  -0.0615  0.9632  0.0864  -2.2121   0.0000   0.0000   0.0000   0.0269
  -4.000  -0.2151   0.02895   0.01928  -0.0653  0.9520  0.0918  -2.0374   0.0000   0.0000   0.0000  -0.0638
  -3.500  -0.1436   0.02685   0.01686  -0.0687  0.9403  0.0987  -1.8533   0.0000   0.0000   0.0000  -0.2415
  -3.000  -0.0738   0.02524   0.01512  -0.0716  0.9279  0.1117  -1.6760   0.0000   0.0000   0.0000  -0.7425
  -2.500  -0.0061   0.02378   0.01385  -0.0741  0.9149  0.1389  -1.5065   0.0000   0.0000   0.0000  -12.0339
  -2.000   0.0608   0.02233   0.01303  -0.0767  0.9016  0.2467  -1.3400   0.0000   0.0000   0.0000   1.5282
  -1.500   0.1216   0.02058   0.01289  -0.0778  0.8883  0.5896  -1.1526   0.0000   0.0000   0.0000   0.8962
  -1.000   0.2322   0.01963   0.01241  -0.0857  0.8792  1.0000  -0.8702   0.0000   0.0000   0.0000   0.6209
  -0.500   0.3032   0.01923   0.01155  -0.0877  0.8578  1.0000  -0.6732   0.0000   0.0000   0.0000   0.5393
   0.000   0.3639   0.01899   0.01099  -0.0878  0.8360  1.0000  -0.7008   0.0000   0.0000   0.0000   0.4902
   0.500   0.4282   0.01875   0.01049  -0.0885  0.8190  1.0000  -0.7575   0.0000   0.0000   0.0000   0.4549
   1.000   0.4806   0.01877   0.01033  -0.0872  0.7973  1.0000  -0.8078   0.0000   0.0000   0.0000   0.4291
   1.500   0.5364   0.01869   0.01009  -0.0862  0.7762  1.0000  -0.8622   0.0000   0.0000   0.0000   0.4079
   2.000   0.5947   0.01849   0.00975  -0.0856  0.7551  1.0000  -0.9203   0.0000   0.0000   0.0000   0.3905
   2.500   0.6494   0.01841   0.00957  -0.0843  0.7309  1.0000  -0.9774   0.0000   0.0000   0.0000   0.3760
   3.000   0.6999   0.01849   0.00959  -0.0825  0.7028  1.0000  -1.0351   0.0000   0.0000   0.0000   0.3634
   3.500   0.7515   0.01856   0.00959  -0.0807  0.6726  1.0000  -1.1110   0.0000   0.0000   0.0000   0.3525
   4.000   0.8031   0.01868   0.00963  -0.0790  0.6401  1.0000  -1.2222   0.0000   0.0000   0.0000   0.3430
   4.500   0.8542   0.01892   0.00977  -0.0773  0.6052  1.0000  -1.3404   0.0000   0.0000   0.0000   0.3346
   5.000   0.9035   0.01937   0.01013  -0.0755  0.5690  1.0000  -1.4627   0.0000   0.0000   0.0000   0.3271
   5.500   0.9512   0.02005   0.01074  -0.0737  0.5341  1.0000  -1.5879   0.0000   0.0000   0.0000   0.3205
   6.000   0.9988   0.02085   0.01148  -0.0720  0.5023  1.0000  -1.7202   0.0000   0.0000   0.0000   0.3145
   6.500   1.0451   0.02170   0.01230  -0.0702  0.4723  1.0000  -1.8559   0.0000   0.0000   0.0000   0.3089
   7.000   1.0883   0.02254   0.01312  -0.0678  0.4405  1.0000  -1.9906   0.0000   0.0000   0.0000   0.3035
   7.500   1.1303   0.02347   0.01408  -0.0654  0.4108  1.0000  -2.1873   0.0000   0.0000   0.0000   0.2984
   8.000   1.1726   0.02454   0.01519  -0.0632  0.3842  1.0000  -2.5033   0.0000   0.0000   0.0000   0.2938
   8.500   1.2127   0.02573   0.01645  -0.0608  0.3571  1.0000  -2.8278   0.0000   0.0000   0.0000   0.2893
   9.000   1.2475   0.02708   0.01798  -0.0576  0.3281  1.0000  -3.1592   0.0000   0.0000   0.0000   0.2847
   9.500   1.2787   0.02852   0.01953  -0.0540  0.2975  1.0000  -3.4877   0.0000   0.0000   0.0000   0.2800
  10.000   1.3009   0.03016   0.02137  -0.0493  0.2647  1.0000  -3.7850   0.0000   0.0000   0.0000   0.2749
  10.500   1.3148   0.03189   0.02317  -0.0436  0.2336  1.0000  -4.0653   0.0000   0.0000   0.0000   0.2694
  11.000   1.3221   0.03404   0.02543  -0.0377  0.2054  1.0000  -4.3247   0.0000   0.0000   0.0000   0.2639
  11.500   1.3287   0.03669   0.02812  -0.0328  0.1818  1.0000  -4.5834   0.0000   0.0000   0.0000   0.2593
  12.000   1.3357   0.03986   0.03138  -0.0288  0.1627  1.0000  -4.8402   0.0000   0.0000   0.0000   0.2553
  12.500   1.3377   0.04361   0.03523  -0.0254  0.1453  1.0000  -5.0731   0.0000   0.0000   0.0000   0.2518
  13.000   1.3326   0.04835   0.04023  -0.0228  0.1279  1.0000  -5.2608   0.0000   0.0000   0.0000   0.2490
  13.500   1.3232   0.05402   0.04606  -0.0212  0.1128  1.0000  -5.4149   0.0000   0.0000   0.0000   0.2469
  14.000   1.3060   0.06129   0.05363  -0.0208  0.0969  1.0000  -5.4998   0.0000   0.0000   0.0000   0.2458
  14.500   1.2812   0.07018   0.06263  -0.0218  0.0825  1.0000  -5.5244   0.0000   0.0000   0.0000   0.2458
  15.000   1.2559   0.08017   0.07285  -0.0238  0.0689  1.0000  -5.5140   0.0000   0.0000   0.0000   0.2467


