xflr5 v6.61

 Calculated polar for: CLARK Y AIRFOIL

 1 1 Reynolds number fixed          Mach number fixed         

 xtrf =   1.000 (top)        1.000 (bottom)
 Mach =   0.000     Re =     0.500 e 6     Ncrit =   7.000

  alpha     CL        CD       CDp       Cm    Top Xtr Bot Xtr   Cpmin    Chinge    XCp    
 ------- -------- --------- --------- -------- ------- ------- -------- --------- ---------
 -11.000  -0.6887   0.04642   0.04386  -0.0749  1.0000  0.0231  -6.4315   0.0000   0.0000   0.0000   0.1283
 -10.500  -0.7307   0.03215   0.02834  -0.0805  0.9901  0.0242  -6.8799   0.0000   0.0000   0.0000   0.1279
 -10.000  -0.6717   0.03037   0.02651  -0.0839  0.9858  0.0251  -6.2530   0.0000   0.0000   0.0000   0.1134
  -9.500  -0.6174   0.02754   0.02334  -0.0869  0.9793  0.0266  -5.7398   0.0000   0.0000   0.0000   0.0977
  -9.000  -0.5667   0.02377   0.01881  -0.0892  0.9716  0.0282  -5.3436   0.0000   0.0000   0.0000   0.0812
  -8.500  -0.5103   0.02140   0.01629  -0.0911  0.9646  0.0294  -4.8540   0.0000   0.0000   0.0000   0.0601
  -8.000  -0.4555   0.01973   0.01439  -0.0918  0.9550  0.0308  -4.4103   0.0000   0.0000   0.0000   0.0371
  -7.500  -0.4042   0.01805   0.01236  -0.0914  0.9429  0.0321  -4.0251   0.0000   0.0000   0.0000   0.0122
  -7.000  -0.3537   0.01652   0.01052  -0.0906  0.9292  0.0329  -3.6786   0.0000   0.0000   0.0000  -0.0181
  -6.500  -0.3042   0.01478   0.00866  -0.0897  0.9143  0.0341  -3.3584   0.0000   0.0000   0.0000  -0.0572
  -6.000  -0.2525   0.01377   0.00753  -0.0889  0.8992  0.0354  -3.0483   0.0000   0.0000   0.0000  -0.1154
  -5.500  -0.2002   0.01283   0.00645  -0.0882  0.8840  0.0366  -2.7851   0.0000   0.0000   0.0000  -0.2051
  -5.000  -0.1472   0.01206   0.00552  -0.0875  0.8688  0.0377  -2.5287   0.0000   0.0000   0.0000  -0.3617
  -4.500  -0.0950   0.01121   0.00459  -0.0867  0.8525  0.0395  -2.2869   0.0000   0.0000   0.0000  -0.6870
  -4.000  -0.0417   0.01063   0.00392  -0.0861  0.8342  0.0416  -2.0547   0.0000   0.0000   0.0000  -1.8596
  -3.500   0.0121   0.01020   0.00336  -0.0855  0.8147  0.0440  -1.8289   0.0000   0.0000   0.0000   7.4288
  -3.000   0.0661   0.00977   0.00287  -0.0849  0.7955  0.0484  -1.6076   0.0000   0.0000   0.0000   1.5546
  -2.500   0.1204   0.00944   0.00251  -0.0844  0.7760  0.0600  -1.3925   0.0000   0.0000   0.0000   0.9594
  -2.000   0.1742   0.00908   0.00223  -0.0839  0.7556  0.1020  -1.2006   0.0000   0.0000   0.0000   0.7357
  -1.500   0.2276   0.00868   0.00204  -0.0835  0.7345  0.1796  -1.0063   0.0000   0.0000   0.0000   0.6185
  -1.000   0.2813   0.00835   0.00194  -0.0831  0.7159  0.2759  -0.8159   0.0000   0.0000   0.0000   0.5457
  -0.500   0.3345   0.00800   0.00188  -0.0826  0.6965  0.3869  -0.6895   0.0000   0.0000   0.0000   0.4964
   0.000   0.3843   0.00736   0.00188  -0.0816  0.6770  0.6096  -0.7381   0.0000   0.0000   0.0000   0.4608
   0.500   0.4278   0.00673   0.00203  -0.0782  0.6559  0.8816  -0.7838   0.0000   0.0000   0.0000   0.4307
   1.000   0.5091   0.00686   0.00213  -0.0831  0.6320  0.9837  -0.8532   0.0000   0.0000   0.0000   0.4106
   1.500   0.5881   0.00705   0.00215  -0.0882  0.6036  1.0000  -0.9232   0.0000   0.0000   0.0000   0.3968
   2.000   0.6367   0.00727   0.00222  -0.0867  0.5754  1.0000  -0.9750   0.0000   0.0000   0.0000   0.3824
   2.500   0.6845   0.00756   0.00233  -0.0850  0.5440  1.0000  -1.0287   0.0000   0.0000   0.0000   0.3700
   3.000   0.7318   0.00790   0.00250  -0.0833  0.5085  1.0000  -1.0833   0.0000   0.0000   0.0000   0.3591
   3.500   0.7785   0.00832   0.00273  -0.0814  0.4676  1.0000  -1.1631   0.0000   0.0000   0.0000   0.3494
   4.000   0.8244   0.00885   0.00303  -0.0796  0.4198  1.0000  -1.2743   0.0000   0.0000   0.0000   0.3408
   4.500   0.8698   0.00949   0.00342  -0.0777  0.3722  1.0000  -1.3888   0.0000   0.0000   0.0000   0.3331
   5.000   0.9170   0.01006   0.00383  -0.0762  0.3429  1.0000  -1.5148   0.0000   0.0000   0.0000   0.3264
   5.500   0.9658   0.01055   0.00424  -0.0751  0.3239  1.0000  -1.6523   0.0000   0.0000   0.0000   0.3204
   6.000   1.0147   0.01103   0.00469  -0.0739  0.3092  1.0000  -1.7949   0.0000   0.0000   0.0000   0.3150
   6.500   1.0637   0.01150   0.00516  -0.0728  0.2949  1.0000  -1.9408   0.0000   0.0000   0.0000   0.3100
   7.000   1.1125   0.01197   0.00563  -0.0717  0.2763  1.0000  -2.0960   0.0000   0.0000   0.0000   0.3054
   7.500   1.1598   0.01253   0.00615  -0.0704  0.2516  1.0000  -2.3903   0.0000   0.0000   0.0000   0.3011
   8.000   1.2037   0.01328   0.00677  -0.0687  0.2133  1.0000  -2.7345   0.0000   0.0000   0.0000   0.2967
   8.500   1.2404   0.01452   0.00771  -0.0660  0.1592  1.0000  -3.0816   0.0000   0.0000   0.0000   0.2922
   9.000   1.2745   0.01587   0.00886  -0.0629  0.1199  1.0000  -3.4304   0.0000   0.0000   0.0000   0.2876
   9.500   1.3061   0.01712   0.01000  -0.0593  0.0952  1.0000  -3.7906   0.0000   0.0000   0.0000   0.2830
  10.000   1.3380   0.01834   0.01120  -0.0560  0.0797  1.0000  -4.1745   0.0000   0.0000   0.0000   0.2787
  10.500   1.3669   0.01976   0.01257  -0.0525  0.0607  1.0000  -4.5505   0.0000   0.0000   0.0000   0.2745
  11.000   1.3755   0.02258   0.01509  -0.0469  0.0206  1.0000  -4.8273   0.0000   0.0000   0.0000   0.2694
  11.500   1.3925   0.02500   0.01761  -0.0428  0.0163  1.0000  -5.1470   0.0000   0.0000   0.0000   0.2652
  12.000   1.4114   0.02743   0.02021  -0.0395  0.0146  1.0000  -5.4912   0.0000   0.0000   0.0000   0.2616
  12.500   1.4232   0.03060   0.02355  -0.0361  0.0133  1.0000  -5.8189   0.0000   0.0000   0.0000   0.2581
  13.000   1.4349   0.03401   0.02715  -0.0335  0.0125  1.0000  -6.1505   0.0000   0.0000   0.0000   0.2551
  13.500   1.4394   0.03834   0.03166  -0.0313  0.0118  1.0000  -6.4443   0.0000   0.0000   0.0000   0.2525
  14.000   1.4305   0.04439   0.03792  -0.0295  0.0113  1.0000  -6.6463   0.0000   0.0000   0.0000   0.2504
  14.500   1.4314   0.04985   0.04361  -0.0288  0.0108  1.0000  -6.9100   0.0000   0.0000   0.0000   0.2488
  15.000   1.4257   0.05651   0.05049  -0.0289  0.0104  1.0000  -7.1274   0.0000   0.0000   0.0000   0.2479


