xflr5 v6.61

 Calculated polar for: CLARK Y AIRFOIL

 1 1 Reynolds number fixed          Mach number fixed         

 xtrf =   1.000 (top)        1.000 (bottom)
 Mach =   0.000     Re =     0.030 e 6     Ncrit =   7.000

  alpha     CL        CD       CDp       Cm    Top Xtr Bot Xtr   Cpmin    Chinge    XCp    
 ------- -------- --------- --------- -------- ------- ------- -------- --------- ---------
 -15.000  -0.4576   0.18627   0.17617  -0.0080  1.0000  0.1821  -1.4560   0.0000   0.0000   0.0000   0.2163
 -14.500  -0.4440   0.18039   0.17034  -0.0104  1.0000  0.1910  -1.4456   0.0000   0.0000   0.0000   0.2107
 -14.000  -0.4333   0.17515   0.16516  -0.0127  1.0000  0.2016  -1.4386   0.0000   0.0000   0.0000   0.2053
 -13.500  -0.4220   0.16959   0.15965  -0.0146  1.0000  0.2137  -1.4230   0.0000   0.0000   0.0000   0.2003
 -13.000  -0.4122   0.16414   0.15428  -0.0164  1.0000  0.2257  -1.4194   0.0000   0.0000   0.0000   0.1957
 -12.500  -0.3950   0.15693   0.14710  -0.0175  1.0000  0.2403  -1.3849   0.0000   0.0000   0.0000   0.1913
 -12.000  -0.3807   0.15044   0.14065  -0.0184  1.0000  0.2559  -1.3536   0.0000   0.0000   0.0000   0.1873
 -11.500  -0.3702   0.14458   0.13486  -0.0194  1.0000  0.2718  -1.3295   0.0000   0.0000   0.0000   0.1838
 -11.000  -0.3707   0.14042   0.13081  -0.0202  1.0000  0.2887  -1.3400   0.0000   0.0000   0.0000   0.1824
 -10.500  -0.3492   0.13250   0.12292  -0.0202  1.0000  0.3078  -1.2865   0.0000   0.0000   0.0000   0.1789
 -10.000  -0.3487   0.12793   0.11848  -0.0203  1.0000  0.3272  -1.2819   0.0000   0.0000   0.0000   0.1795
  -9.500  -0.3324   0.12112   0.11173  -0.0196  1.0000  0.3509  -1.2386   0.0000   0.0000   0.0000   0.1787
  -9.000  -0.3221   0.11520   0.10591  -0.0186  1.0000  0.3756  -1.2076   0.0000   0.0000   0.0000   0.1803
  -8.500  -0.3140   0.10954   0.10038  -0.0172  1.0000  0.3995  -1.1789   0.0000   0.0000   0.0000   0.1838
  -8.000  -0.3121   0.10481   0.09581  -0.0145  1.0000  0.4305  -1.1622   0.0000   0.0000   0.0000   0.1926
  -7.500  -0.2997   0.09898   0.09010  -0.0117  1.0000  0.4640  -1.1206   0.0000   0.0000   0.0000   0.2005
  -6.500  -0.4281   0.08635   0.07819  -0.0251  1.0000  0.2223  -1.6434   0.0000   0.0000   0.0000   0.1855
  -5.500  -0.4443   0.06942   0.06104  -0.0314  1.0000  0.1815  -1.8475   0.0000   0.0000   0.0000   0.1742
  -5.000  -0.4302   0.06065   0.05168  -0.0354  1.0000  0.1721  -1.9148   0.0000   0.0000   0.0000   0.1628
  -4.500  -0.4020   0.05377   0.04419  -0.0372  1.0000  0.1711  -1.8927   0.0000   0.0000   0.0000   0.1524
  -4.000  -0.3629   0.04756   0.03705  -0.0394  1.0000  0.1735  -1.8628   0.0000   0.0000   0.0000   0.1362
  -3.500  -0.3191   0.04316   0.03204  -0.0400  1.0000  0.1791  -1.7810   0.0000   0.0000   0.0000   0.1191
  -2.500  -0.2214   0.03730   0.02472  -0.0409  1.0000  0.2115  -1.6094   0.0000   0.0000   0.0000   0.0591
  -2.000  -0.1722   0.03556   0.02268  -0.0408  1.0000  0.2492  -1.5186   0.0000   0.0000   0.0000   0.0062
  -1.500  -0.1240   0.03391   0.02133  -0.0406  1.0000  0.3378  -1.4190   0.0000   0.0000   0.0000  -0.0848
  -1.000  -0.0885   0.03003   0.02037  -0.0344  1.0000  0.7522  -1.3452   0.0000   0.0000   0.0000  -0.1471
  -0.500  -0.0467   0.03046   0.01959  -0.0349  1.0000  1.0000  -1.2276   0.0000   0.0000   0.0000  -0.5093
   0.000  -0.0074   0.03181   0.02015  -0.0349  1.0000  1.0000  -1.0847   0.0000   0.0000   0.0000  -4.4892
   0.500   0.0541   0.03391   0.02157  -0.0394  0.9890  1.0000  -0.9015   0.0000   0.0000   0.0000   0.9788
   1.000   0.1485   0.03673   0.02375  -0.0495  0.9563  1.0000  -0.6815   0.0000   0.0000   0.0000   0.5813
   1.500   0.2345   0.03912   0.02573  -0.0574  0.9199  1.0000  -0.6105   0.0000   0.0000   0.0000   0.4918
   2.000   0.3111   0.04120   0.02755  -0.0631  0.8833  1.0000  -0.6660   0.0000   0.0000   0.0000   0.4490
   2.500   0.3803   0.04313   0.02933  -0.0669  0.8470  1.0000  -0.7191   0.0000   0.0000   0.0000   0.4219
   3.000   0.4442   0.04500   0.03112  -0.0696  0.8107  1.0000  -0.7708   0.0000   0.0000   0.0000   0.4021
   3.500   0.5035   0.04686   0.03297  -0.0712  0.7750  1.0000  -0.8240   0.0000   0.0000   0.0000   0.3864
   4.000   0.5626   0.04871   0.03484  -0.0724  0.7413  1.0000  -0.8847   0.0000   0.0000   0.0000   0.3734
   4.500   0.6105   0.05090   0.03710  -0.0722  0.7087  1.0000  -0.9525   0.0000   0.0000   0.0000   0.3626
   5.000   0.6588   0.05318   0.03949  -0.0721  0.6795  1.0000  -1.0423   0.0000   0.0000   0.0000   0.3532
   5.500   0.6890   0.05644   0.04284  -0.0706  0.6510  1.0000  -1.1115   0.0000   0.0000   0.0000   0.3458
   6.000   0.7214   0.05982   0.04636  -0.0695  0.6254  1.0000  -1.1862   0.0000   0.0000   0.0000   0.3391
   6.500   0.7509   0.06352   0.05023  -0.0683  0.6012  1.0000  -1.2583   0.0000   0.0000   0.0000   0.3332
   7.000   0.7791   0.06741   0.05430  -0.0671  0.5776  1.0000  -1.3317   0.0000   0.0000   0.0000   0.3278
   7.500   0.8055   0.07147   0.05857  -0.0657  0.5535  1.0000  -1.4017   0.0000   0.0000   0.0000   0.3227
   8.000   0.8270   0.07588   0.06320  -0.0641  0.5283  1.0000  -1.4658   0.0000   0.0000   0.0000   0.3181
   8.500   0.8439   0.08070   0.06826  -0.0624  0.5019  1.0000  -1.5210   0.0000   0.0000   0.0000   0.3140
   9.000   0.8639   0.08523   0.07303  -0.0605  0.4734  1.0000  -1.5804   0.0000   0.0000   0.0000   0.3095
   9.500   0.8943   0.08860   0.07670  -0.0580  0.4426  1.0000  -1.6603   0.0000   0.0000   0.0000   0.3037
  10.000   0.8992   0.09453   0.08284  -0.0563  0.4117  1.0000  -1.7269   0.0000   0.0000   0.0000   0.3008
  10.500   0.9245   0.09854   0.08714  -0.0538  0.3814  1.0000  -1.9140   0.0000   0.0000   0.0000   0.2958
  11.000   0.9201   0.10655   0.09529  -0.0536  0.3560  1.0000  -1.9770   0.0000   0.0000   0.0000   0.2951
  11.500   0.9182   0.11485   0.10373  -0.0539  0.3344  1.0000  -2.0407   0.0000   0.0000   0.0000   0.2950
  12.000   0.9043   0.12495   0.11391  -0.0559  0.3178  1.0000  -2.0360   0.0000   0.0000   0.0000   0.2975
  12.500   0.8985   0.13464   0.12370  -0.0582  0.3057  1.0000  -2.0555   0.0000   0.0000   0.0000   0.2999
  13.000   0.9007   0.14345   0.13265  -0.0603  0.2946  1.0000  -2.1081   0.0000   0.0000   0.0000   0.3015
  13.500   0.8879   0.15418   0.14345  -0.0648  0.2922  1.0000  -2.0645   0.0000   0.0000   0.0000   0.3069
  14.000   0.8845   0.16342   0.15278  -0.0686  0.2900  1.0000  -2.0637   0.0000   0.0000   0.0000   0.3109


