xflr5 v6.61

 Calculated polar for: CLARK Y AIRFOIL

 1 1 Reynolds number fixed          Mach number fixed         

 xtrf =   1.000 (top)        1.000 (bottom)
 Mach =   0.000     Re =     0.040 e 6     Ncrit =   7.000

  alpha     CL        CD       CDp       Cm    Top Xtr Bot Xtr   Cpmin    Chinge    XCp    
 ------- -------- --------- --------- -------- ------- ------- -------- --------- ---------
 -15.000  -0.4562   0.18373   0.17494  -0.0100  1.0000  0.1348  -1.5057   0.0000   0.0000   0.0000   0.2118
 -14.500  -0.4428   0.17747   0.16873  -0.0127  1.0000  0.1401  -1.5028   0.0000   0.0000   0.0000   0.2054
 -14.000  -0.4376   0.17382   0.16514  -0.0158  1.0000  0.1490  -1.5250   0.0000   0.0000   0.0000   0.1987
 -13.500  -0.4152   0.16531   0.15664  -0.0170  1.0000  0.1582  -1.4605   0.0000   0.0000   0.0000   0.1939
 -13.000  -0.4038   0.15912   0.15051  -0.0191  1.0000  0.1657  -1.4533   0.0000   0.0000   0.0000   0.1878
 -12.500  -0.4002   0.15440   0.14588  -0.0216  1.0000  0.1754  -1.4747   0.0000   0.0000   0.0000   0.1818
 -12.000  -0.3955   0.14957   0.14112  -0.0236  1.0000  0.1865  -1.4801   0.0000   0.0000   0.0000   0.1769
 -11.500  -0.3804   0.14247   0.13405  -0.0245  1.0000  0.1985  -1.4396   0.0000   0.0000   0.0000   0.1723
 -11.000  -0.3724   0.13653   0.12819  -0.0256  1.0000  0.2113  -1.4200   0.0000   0.0000   0.0000   0.1683
 -10.500  -0.3642   0.13046   0.12220  -0.0265  1.0000  0.2239  -1.4054   0.0000   0.0000   0.0000   0.1649
 -10.000  -0.3606   0.12495   0.11678  -0.0272  1.0000  0.2371  -1.3989   0.0000   0.0000   0.0000   0.1628
  -9.500  -0.3458   0.11792   0.10984  -0.0268  1.0000  0.2524  -1.3471   0.0000   0.0000   0.0000   0.1608
  -9.000  -0.3357   0.11185   0.10386  -0.0262  1.0000  0.2678  -1.3161   0.0000   0.0000   0.0000   0.1607
  -8.500  -0.3328   0.10659   0.09873  -0.0252  1.0000  0.2843  -1.2978   0.0000   0.0000   0.0000   0.1638
  -8.000  -0.3537   0.10337   0.09578  -0.0231  1.0000  0.3019  -1.3285   0.0000   0.0000   0.0000   0.1758
  -7.500  -0.3390   0.09703   0.08955  -0.0200  1.0000  0.3209  -1.2708   0.0000   0.0000   0.0000   0.1823
  -7.000  -0.3637   0.09400   0.08679  -0.0148  1.0000  0.3397  -1.2917   0.0000   0.0000   0.0000   0.2017
  -6.000  -0.4583   0.07275   0.06561  -0.0322  1.0000  0.1596  -1.9113   0.0000   0.0000   0.0000   0.1745
  -5.500  -0.4532   0.06340   0.05591  -0.0350  1.0000  0.1443  -2.0025   0.0000   0.0000   0.0000   0.1675
  -5.000  -0.4332   0.05357   0.04513  -0.0393  1.0000  0.1366  -2.1002   0.0000   0.0000   0.0000   0.1539
  -4.500  -0.3995   0.04714   0.03789  -0.0405  1.0000  0.1368  -2.0612   0.0000   0.0000   0.0000   0.1432
  -4.000  -0.3570   0.04185   0.03175  -0.0414  1.0000  0.1378  -1.9949   0.0000   0.0000   0.0000   0.1284
  -3.500  -0.3131   0.03858   0.02801  -0.0414  1.0000  0.1450  -1.8748   0.0000   0.0000   0.0000   0.1120
  -3.000  -0.2650   0.03557   0.02429  -0.0416  1.0000  0.1522  -1.7867   0.0000   0.0000   0.0000   0.0869
  -2.500  -0.2191   0.03376   0.02213  -0.0412  1.0000  0.1676  -1.6702   0.0000   0.0000   0.0000   0.0555
  -2.000  -0.1722   0.03243   0.02053  -0.0406  1.0000  0.1920  -1.5723   0.0000   0.0000   0.0000   0.0069
  -1.500  -0.1131   0.03143   0.01964  -0.0425  0.9962  0.2609  -1.4507   0.0000   0.0000   0.0000  -0.1351
  -1.000  -0.0464   0.02820   0.01946  -0.0432  0.9840  0.7555  -1.3119   0.0000   0.0000   0.0000  -0.6976
  -0.500   0.0405   0.02934   0.01951  -0.0509  0.9599  1.0000  -1.0989   0.0000   0.0000   0.0000   1.5202
   0.000   0.1189   0.03088   0.02030  -0.0570  0.9362  1.0000  -0.8832   0.0000   0.0000   0.0000   0.7311
   0.500   0.2012   0.03224   0.02112  -0.0632  0.9080  1.0000  -0.6777   0.0000   0.0000   0.0000   0.5631
   1.000   0.2775   0.03332   0.02182  -0.0677  0.8774  1.0000  -0.6417   0.0000   0.0000   0.0000   0.4918
   1.500   0.3478   0.03428   0.02253  -0.0708  0.8476  1.0000  -0.6978   0.0000   0.0000   0.0000   0.4507
   2.000   0.4208   0.03506   0.02314  -0.0738  0.8195  1.0000  -0.7576   0.0000   0.0000   0.0000   0.4220
   2.500   0.4806   0.03589   0.02389  -0.0745  0.7885  1.0000  -0.8105   0.0000   0.0000   0.0000   0.4012
   3.000   0.5479   0.03636   0.02433  -0.0758  0.7588  1.0000  -0.8730   0.0000   0.0000   0.0000   0.3839
   3.500   0.6190   0.03643   0.02442  -0.0768  0.7310  1.0000  -0.9468   0.0000   0.0000   0.0000   0.3693
   4.000   0.6681   0.03727   0.02530  -0.0751  0.6978  1.0000  -1.0155   0.0000   0.0000   0.0000   0.3572
   4.500   0.7308   0.03744   0.02556  -0.0746  0.6698  1.0000  -1.1322   0.0000   0.0000   0.0000   0.3464
   5.000   0.7800   0.03838   0.02661  -0.0729  0.6400  1.0000  -1.2394   0.0000   0.0000   0.0000   0.3373
   5.500   0.8274   0.03954   0.02791  -0.0712  0.6120  1.0000  -1.3469   0.0000   0.0000   0.0000   0.3293
   6.000   0.8751   0.04077   0.02928  -0.0695  0.5862  1.0000  -1.4635   0.0000   0.0000   0.0000   0.3222
   6.500   0.9204   0.04218   0.03089  -0.0675  0.5611  1.0000  -1.5780   0.0000   0.0000   0.0000   0.3156
   7.000   0.9647   0.04359   0.03252  -0.0654  0.5361  1.0000  -1.6994   0.0000   0.0000   0.0000   0.3095
   7.500   1.0119   0.04461   0.03379  -0.0631  0.5103  1.0000  -1.8296   0.0000   0.0000   0.0000   0.3035
   8.000   1.0735   0.04420   0.03361  -0.0612  0.4825  1.0000  -2.0117   0.0000   0.0000   0.0000   0.2975
   8.500   1.1091   0.04538   0.03504  -0.0574  0.4499  1.0000  -2.2855   0.0000   0.0000   0.0000   0.2915
   9.000   1.1598   0.04532   0.03519  -0.0543  0.4153  1.0000  -2.6356   0.0000   0.0000   0.0000   0.2859
   9.500   1.2051   0.04601   0.03606  -0.0511  0.3797  1.0000  -2.9840   0.0000   0.0000   0.0000   0.2808
  10.000   1.2442   0.04757   0.03774  -0.0478  0.3437  1.0000  -3.3240   0.0000   0.0000   0.0000   0.2760
  10.500   1.2637   0.05079   0.04121  -0.0434  0.3114  1.0000  -3.5794   0.0000   0.0000   0.0000   0.2711
  11.000   1.2936   0.05376   0.04431  -0.0400  0.2829  1.0000  -3.8816   0.0000   0.0000   0.0000   0.2670
  11.500   1.2614   0.06060   0.05160  -0.0333  0.2667  1.0000  -3.8946   0.0000   0.0000   0.0000   0.2618
  12.000   1.2103   0.07034   0.06164  -0.0292  0.2550  1.0000  -3.8028   0.0000   0.0000   0.0000   0.2587
  12.500   0.9976   0.10989   0.10086  -0.0439  0.2503  1.0000  -2.7326   0.0000   0.0000   0.0000   0.2783
  13.000   0.9599   0.12543   0.11635  -0.0497  0.2396  1.0000  -2.5719   0.0000   0.0000   0.0000   0.2856
  13.500   0.9448   0.13741   0.12838  -0.0540  0.2319  1.0000  -2.5269   0.0000   0.0000   0.0000   0.2904
  14.000   0.9543   0.14544   0.13658  -0.0556  0.2234  1.0000  -2.6298   0.0000   0.0000   0.0000   0.2909
  14.500   0.9319   0.15895   0.15010  -0.0626  0.2213  1.0000  -2.4933   0.0000   0.0000   0.0000   0.2993
  15.000   0.9246   0.16966   0.16089  -0.0679  0.2191  1.0000  -2.4416   0.0000   0.0000   0.0000   0.3050


