xflr5 v6.61

 Calculated polar for: NACA 4412

 1 1 Reynolds number fixed          Mach number fixed         

 xtrf =   1.000 (top)        1.000 (bottom)
 Mach =   0.000     Re =     0.500 e 6     Ncrit =   6.000

  alpha     CL        CD       CDp       Cm    Top Xtr Bot Xtr   Cpmin    Chinge    XCp    
 ------- -------- --------- --------- -------- ------- ------- -------- --------- ---------
 -15.000  -0.4257   0.16433   0.16170  -0.0219  1.0000  0.0144  -2.0366   0.0000   0.0000   0.0000   0.1785
 -12.500  -0.8850   0.03630   0.03284  -0.0850  0.9991  0.0158  -9.1883   0.0000   0.0000   0.0000   0.1390
 -12.000  -0.8432   0.03101   0.02716  -0.0917  0.9934  0.0163  -8.7501   0.0000   0.0000   0.0000   0.1269
 -11.500  -0.7949   0.02724   0.02301  -0.0957  0.9880  0.0170  -8.2492   0.0000   0.0000   0.0000   0.1156
 -11.000  -0.7431   0.02417   0.01952  -0.0987  0.9824  0.0179  -7.7691   0.0000   0.0000   0.0000   0.1036
 -10.500  -0.6876   0.02163   0.01663  -0.1013  0.9775  0.0189  -7.2715   0.0000   0.0000   0.0000   0.0892
 -10.000  -0.6272   0.01990   0.01475  -0.1040  0.9732  0.0200  -6.7191   0.0000   0.0000   0.0000   0.0709
  -9.500  -0.5709   0.01833   0.01294  -0.1053  0.9662  0.0212  -6.2179   0.0000   0.0000   0.0000   0.0523
  -9.000  -0.5153   0.01688   0.01123  -0.1062  0.9583  0.0224  -5.7387   0.0000   0.0000   0.0000   0.0307
  -8.500  -0.4607   0.01563   0.00987  -0.1066  0.9490  0.0240  -5.2576   0.0000   0.0000   0.0000   0.0052
  -8.000  -0.4060   0.01469   0.00877  -0.1067  0.9382  0.0260  -4.7899   0.0000   0.0000   0.0000  -0.0264
  -7.500  -0.3524   0.01368   0.00763  -0.1065  0.9248  0.0280  -4.3596   0.0000   0.0000   0.0000  -0.0662
  -7.000  -0.2993   0.01292   0.00673  -0.1060  0.9094  0.0305  -3.9657   0.0000   0.0000   0.0000  -0.1189
  -6.500  -0.2455   0.01219   0.00590  -0.1056  0.8953  0.0335  -3.5771   0.0000   0.0000   0.0000  -0.1965
  -6.000  -0.1910   0.01156   0.00517  -0.1053  0.8807  0.0373  -3.2002   0.0000   0.0000   0.0000  -0.3200
  -5.500  -0.1362   0.01102   0.00452  -0.1050  0.8648  0.0417  -2.8359   0.0000   0.0000   0.0000  -0.5442
  -5.000  -0.0813   0.01056   0.00399  -0.1048  0.8479  0.0478  -2.5109   0.0000   0.0000   0.0000  -1.0733
  -4.500  -0.0262   0.01016   0.00351  -0.1045  0.8293  0.0553  -2.1995   0.0000   0.0000   0.0000  -3.8364
  -4.000   0.0291   0.00982   0.00311  -0.1043  0.8095  0.0655  -1.8997   0.0000   0.0000   0.0000   3.9080
  -3.500   0.0842   0.00954   0.00277  -0.1040  0.7881  0.0791  -1.6362   0.0000   0.0000   0.0000   1.5055
  -3.000   0.1393   0.00929   0.00249  -0.1037  0.7655  0.0973  -1.3840   0.0000   0.0000   0.0000   1.0046
  -2.500   0.1943   0.00910   0.00227  -0.1035  0.7417  0.1213  -1.1607   0.0000   0.0000   0.0000   0.7880
  -1.500   0.3038   0.00882   0.00199  -0.1029  0.6910  0.1909  -0.7708   0.0000   0.0000   0.0000   0.5900
  -1.000   0.3583   0.00873   0.00193  -0.1026  0.6651  0.2384  -0.6879   0.0000   0.0000   0.0000   0.5365
  -0.500   0.4125   0.00865   0.00191  -0.1023  0.6396  0.2981  -0.7281   0.0000   0.0000   0.0000   0.4972
   0.000   0.4662   0.00851   0.00193  -0.1019  0.6148  0.3865  -0.7696   0.0000   0.0000   0.0000   0.4672
   0.500   0.5179   0.00801   0.00204  -0.1013  0.5914  0.6173  -0.8119   0.0000   0.0000   0.0000   0.4436
   1.000   0.5628   0.00754   0.00223  -0.0986  0.5704  0.8617  -0.8526   0.0000   0.0000   0.0000   0.4225
   1.500   0.6347   0.00761   0.00232  -0.1017  0.5491  1.0000  -0.9107   0.0000   0.0000   0.0000   0.4070
   2.000   0.6872   0.00787   0.00244  -0.1010  0.5307  1.0000  -0.9602   0.0000   0.0000   0.0000   0.3932
   2.500   0.7399   0.00815   0.00260  -0.1004  0.5141  1.0000  -1.0131   0.0000   0.0000   0.0000   0.3814
   3.000   0.7930   0.00842   0.00279  -0.0998  0.4984  1.0000  -1.0701   0.0000   0.0000   0.0000   0.3711
   3.500   0.8461   0.00871   0.00301  -0.0993  0.4834  1.0000  -1.1324   0.0000   0.0000   0.0000   0.3620
   4.000   0.8991   0.00900   0.00326  -0.0988  0.4686  1.0000  -1.2030   0.0000   0.0000   0.0000   0.3540
   4.500   0.9518   0.00932   0.00354  -0.0982  0.4532  1.0000  -1.3028   0.0000   0.0000   0.0000   0.3468
   5.000   1.0039   0.00965   0.00385  -0.0976  0.4359  1.0000  -1.4573   0.0000   0.0000   0.0000   0.3402
   5.500   1.0546   0.01006   0.00419  -0.0967  0.4136  1.0000  -1.6415   0.0000   0.0000   0.0000   0.3341
   6.000   1.1044   0.01049   0.00457  -0.0957  0.3845  1.0000  -1.8524   0.0000   0.0000   0.0000   0.3285
   6.500   1.1521   0.01105   0.00501  -0.0944  0.3502  1.0000  -2.0816   0.0000   0.0000   0.0000   0.3231
   7.000   1.1970   0.01180   0.00560  -0.0927  0.3089  1.0000  -2.3282   0.0000   0.0000   0.0000   0.3180
   7.500   1.2381   0.01279   0.00636  -0.0904  0.2582  1.0000  -2.5853   0.0000   0.0000   0.0000   0.3129
   8.000   1.2743   0.01406   0.00735  -0.0875  0.2008  1.0000  -2.8455   0.0000   0.0000   0.0000   0.3078
   8.500   1.3059   0.01554   0.00853  -0.0838  0.1459  1.0000  -3.1046   0.0000   0.0000   0.0000   0.3027
   9.000   1.3325   0.01700   0.00979  -0.0793  0.1057  1.0000  -3.3710   0.0000   0.0000   0.0000   0.2973
  10.000   1.3852   0.02003   0.01265  -0.0710  0.0613  1.0000  -3.9224   0.0000   0.0000   0.0000   0.2876
  10.500   1.4104   0.02168   0.01430  -0.0672  0.0496  1.0000  -4.2161   0.0000   0.0000   0.0000   0.2831
  11.000   1.4339   0.02353   0.01619  -0.0635  0.0418  1.0000  -4.5207   0.0000   0.0000   0.0000   0.2790
  11.500   1.4554   0.02563   0.01836  -0.0600  0.0364  1.0000  -4.8230   0.0000   0.0000   0.0000   0.2750
  12.000   1.4751   0.02800   0.02083  -0.0568  0.0321  1.0000  -5.1229   0.0000   0.0000   0.0000   0.2714
  12.500   1.4921   0.03075   0.02370  -0.0538  0.0289  1.0000  -5.4151   0.0000   0.0000   0.0000   0.2680
  13.000   1.5035   0.03417   0.02722  -0.0510  0.0264  1.0000  -5.6845   0.0000   0.0000   0.0000   0.2649
  13.500   1.5162   0.03770   0.03093  -0.0488  0.0245  1.0000  -5.9705   0.0000   0.0000   0.0000   0.2622
  14.000   1.5222   0.04212   0.03548  -0.0469  0.0228  1.0000  -6.2399   0.0000   0.0000   0.0000   0.2598
  14.500   1.5263   0.04701   0.04056  -0.0456  0.0214  1.0000  -6.4973   0.0000   0.0000   0.0000   0.2578
  15.000   1.5299   0.05227   0.04601  -0.0448  0.0200  1.0000  -6.7541   0.0000   0.0000   0.0000   0.2561


