xflr5 v6.61

 Calculated polar for: NACA 4412

 1 1 Reynolds number fixed          Mach number fixed         

 xtrf =   1.000 (top)        1.000 (bottom)
 Mach =   0.000     Re =     0.030 e 6     Ncrit =   6.000

  alpha     CL        CD       CDp       Cm    Top Xtr Bot Xtr   Cpmin    Chinge    XCp    
 ------- -------- --------- --------- -------- ------- ------- -------- --------- ---------
 -15.000  -0.4209   0.18542   0.17504  -0.0179  1.0000  0.1593  -1.3517   0.0000   0.0000   0.0000   0.1892
 -14.500  -0.4097   0.17996   0.16965  -0.0204  1.0000  0.1655  -1.3646   0.0000   0.0000   0.0000   0.1824
 -14.000  -0.4022   0.17555   0.16529  -0.0228  1.0000  0.1729  -1.3851   0.0000   0.0000   0.0000   0.1761
 -13.500  -0.3848   0.16827   0.15804  -0.0242  1.0000  0.1812  -1.3628   0.0000   0.0000   0.0000   0.1700
 -13.000  -0.3727   0.16221   0.15205  -0.0257  1.0000  0.1907  -1.3548   0.0000   0.0000   0.0000   0.1642
 -12.500  -0.3621   0.15638   0.14630  -0.0271  1.0000  0.2012  -1.3476   0.0000   0.0000   0.0000   0.1588
 -12.000  -0.3519   0.15041   0.14040  -0.0282  1.0000  0.2109  -1.3383   0.0000   0.0000   0.0000   0.1537
 -11.500  -0.3436   0.14459   0.13466  -0.0293  1.0000  0.2197  -1.3324   0.0000   0.0000   0.0000   0.1492
 -11.000  -0.3364   0.13890   0.12908  -0.0300  1.0000  0.2302  -1.3374   0.0000   0.0000   0.0000   0.1457
 -10.500  -0.3286   0.13322   0.12350  -0.0301  1.0000  0.2446  -1.3371   0.0000   0.0000   0.0000   0.1437
 -10.000  -0.3267   0.12822   0.11864  -0.0300  1.0000  0.2591  -1.3481   0.0000   0.0000   0.0000   0.1442
  -9.500  -0.3249   0.12296   0.11352  -0.0295  1.0000  0.2714  -1.3554   0.0000   0.0000   0.0000   0.1460
  -9.000  -0.3214   0.11738   0.10808  -0.0285  1.0000  0.2825  -1.3541   0.0000   0.0000   0.0000   0.1489
  -8.500  -0.3295   0.11307   0.10399  -0.0267  1.0000  0.2965  -1.3703   0.0000   0.0000   0.0000   0.1578
  -8.000  -0.3420   0.10901   0.10018  -0.0239  1.0000  0.3098  -1.3892   0.0000   0.0000   0.0000   0.1700
  -7.500  -0.3910   0.09800   0.08936  -0.0329  1.0000  0.1611  -1.7713   0.0000   0.0000   0.0000   0.1577
  -7.000  -0.4110   0.09121   0.08276  -0.0336  1.0000  0.1507  -1.8792   0.0000   0.0000   0.0000   0.1610
  -6.500  -0.4296   0.08324   0.07488  -0.0364  1.0000  0.1430  -2.0170   0.0000   0.0000   0.0000   0.1587
  -6.000  -0.4316   0.07568   0.06725  -0.0377  1.0000  0.1395  -2.0849   0.0000   0.0000   0.0000   0.1564
  -5.500  -0.4244   0.06757   0.05889  -0.0408  1.0000  0.1400  -2.1532   0.0000   0.0000   0.0000   0.1479
  -5.000  -0.4025   0.05898   0.04969  -0.0455  1.0000  0.1433  -2.2075   0.0000   0.0000   0.0000   0.1310
  -4.500  -0.3694   0.05283   0.04302  -0.0476  1.0000  0.1498  -2.1556   0.0000   0.0000   0.0000   0.1152
  -4.000  -0.3270   0.04730   0.03673  -0.0502  1.0000  0.1603  -2.0774   0.0000   0.0000   0.0000   0.0902
  -3.500  -0.2805   0.04331   0.03200  -0.0520  1.0000  0.1756  -1.9729   0.0000   0.0000   0.0000   0.0578
  -3.000  -0.2345   0.04065   0.02874  -0.0529  1.0000  0.1960  -1.8402   0.0000   0.0000   0.0000   0.0171
  -2.500  -0.1896   0.03898   0.02661  -0.0531  1.0000  0.2226  -1.6847   0.0000   0.0000   0.0000  -0.0384
  -2.000  -0.1008   0.03774   0.02489  -0.0609  0.9818  0.2766  -1.4613   0.0000   0.0000   0.0000  -0.3672
  -1.500  -0.0176   0.03673   0.02383  -0.0674  0.9617  0.3615  -1.2423   0.0000   0.0000   0.0000  -3.6329
  -1.000   0.0547   0.03532   0.02347  -0.0712  0.9416  0.5279  -1.0469   0.0000   0.0000   0.0000   1.5676
  -0.500   0.1180   0.03440   0.02315  -0.0720  0.9170  1.0000  -0.8825   0.0000   0.0000   0.0000   0.8646
   0.000   0.1889   0.03585   0.02366  -0.0766  0.8934  1.0000  -0.7064   0.0000   0.0000   0.0000   0.6567
   0.500   0.2527   0.03731   0.02452  -0.0797  0.8698  1.0000  -0.5888   0.0000   0.0000   0.0000   0.5651
   1.000   0.3120   0.03884   0.02559  -0.0820  0.8468  1.0000  -0.6270   0.0000   0.0000   0.0000   0.5113
   1.500   0.3728   0.04039   0.02680  -0.0843  0.8253  1.0000  -0.6690   0.0000   0.0000   0.0000   0.4738
   2.000   0.4257   0.04207   0.02824  -0.0854  0.8032  1.0000  -0.7080   0.0000   0.0000   0.0000   0.4474
   2.500   0.4737   0.04393   0.02993  -0.0857  0.7816  1.0000  -0.7456   0.0000   0.0000   0.0000   0.4272
   3.000   0.5259   0.04575   0.03165  -0.0864  0.7614  1.0000  -0.7898   0.0000   0.0000   0.0000   0.4101
   3.500   0.5680   0.04794   0.03378  -0.0860  0.7404  1.0000  -0.8287   0.0000   0.0000   0.0000   0.3966
   4.000   0.6128   0.05013   0.03598  -0.0858  0.7201  1.0000  -0.8738   0.0000   0.0000   0.0000   0.3847
   4.500   0.6589   0.05235   0.03824  -0.0857  0.7006  1.0000  -0.9253   0.0000   0.0000   0.0000   0.3742
   5.000   0.6898   0.05527   0.04126  -0.0842  0.6788  1.0000  -0.9679   0.0000   0.0000   0.0000   0.3656
   5.500   0.7383   0.05750   0.04362  -0.0841  0.6596  1.0000  -1.0395   0.0000   0.0000   0.0000   0.3569
   6.000   0.7594   0.06115   0.04743  -0.0820  0.6366  1.0000  -1.0934   0.0000   0.0000   0.0000   0.3504
   6.500   0.8041   0.06363   0.05011  -0.0814  0.6162  1.0000  -1.2014   0.0000   0.0000   0.0000   0.3431
   7.000   0.8217   0.06773   0.05443  -0.0792  0.5922  1.0000  -1.2815   0.0000   0.0000   0.0000   0.3377
   7.500   0.8650   0.07027   0.05724  -0.0782  0.5706  1.0000  -1.4261   0.0000   0.0000   0.0000   0.3311
   8.000   0.8835   0.07444   0.06165  -0.0761  0.5450  1.0000  -1.5302   0.0000   0.0000   0.0000   0.3262
   8.500   0.9018   0.07870   0.06620  -0.0740  0.5187  1.0000  -1.6417   0.0000   0.0000   0.0000   0.3215
   9.000   0.9239   0.08262   0.07040  -0.0719  0.4914  1.0000  -1.7724   0.0000   0.0000   0.0000   0.3166
   9.500   0.9466   0.08633   0.07442  -0.0696  0.4625  1.0000  -1.9111   0.0000   0.0000   0.0000   0.3116
  10.000   0.9754   0.08908   0.07755  -0.0668  0.4319  1.0000  -2.0843   0.0000   0.0000   0.0000   0.3059
  10.500   0.9985   0.09191   0.08072  -0.0636  0.3990  1.0000  -2.2446   0.0000   0.0000   0.0000   0.3003
  11.000   1.0220   0.09404   0.08323  -0.0600  0.3635  1.0000  -2.4247   0.0000   0.0000   0.0000   0.2945
  11.500   1.0315   0.09790   0.08736  -0.0571  0.3271  1.0000  -2.5485   0.0000   0.0000   0.0000   0.2903
  12.000   1.0513   0.09979   0.08955  -0.0533  0.2904  1.0000  -2.7191   0.0000   0.0000   0.0000   0.2848
  12.500   1.0765   0.10035   0.09040  -0.0489  0.2547  1.0000  -2.9336   0.0000   0.0000   0.0000   0.2785
  13.000   1.1477   0.09232   0.08255  -0.0398  0.2138  1.0000  -3.3818   0.0000   0.0000   0.0000   0.2666
  13.500   1.0743   0.11399   0.10427  -0.0479  0.2015  1.0000  -3.0560   0.0000   0.0000   0.0000   0.2760
  14.000   1.0695   0.12270   0.11306  -0.0491  0.1827  1.0000  -3.0728   0.0000   0.0000   0.0000   0.2766
  14.500   1.0250   0.14228   0.13253  -0.0581  0.1721  1.0000  -2.8038   0.0000   0.0000   0.0000   0.2870
  15.000   1.0065   0.15644   0.14665  -0.0644  0.1619  1.0000  -2.6625   0.0000   0.0000   0.0000   0.2938


